
     RDKit          3D

 38 40  0  0  0  0  0  0  0  0999 V2000
   -4.0156    1.8146   -1.6939 N   0  0  0  0  0  1  0  0  0  0  0  0
   -4.6461    0.6476   -1.1703 C   0  0  0  0  0  0  0  0  0  0  0  0
   -6.0432    0.6061   -1.0862 C   0  0  0  0  0  0  0  0  0  0  0  0
   -6.6840   -0.5194   -0.5628 C   0  0  0  0  0  0  0  0  0  0  0  0
   -5.9318   -1.6076   -0.1162 C   0  0  0  0  0  0  0  0  0  0  0  0
   -4.5370   -1.5755   -0.1963 C   0  0  0  0  0  0  0  0  0  0  0  0
   -3.8802   -0.4552   -0.7349 C   0  0  0  0  0  0  0  0  0  0  0  0
   -2.3722   -0.4295   -0.7811 C   0  0  0  0  0  0  0  0  0  0  0  0
   -1.8046    0.2168    0.4862 C   0  0  0  0  0  0  0  0  0  0  0  0
   -0.3006    0.2458    0.4371 C   0  0  0  0  0  0  0  0  0  0  0  0
    0.3673    1.3297   -0.1514 C   0  0  0  0  0  0  0  0  0  0  0  0
    1.7628    1.3426   -0.2274 C   0  0  0  0  0  0  0  0  0  0  0  0
    2.5157    0.2655    0.2743 C   0  0  0  0  0  0  0  0  0  0  0  0
    3.9988    0.2783    0.1923 C   0  0  0  0  0  0  0  0  0  0  0  0
    4.7078   -0.8919   -0.1403 C   0  0  0  0  0  0  0  0  0  0  0  0
    6.1038   -0.8765   -0.2173 C   0  0  0  0  0  0  0  0  0  0  0  0
    6.8070    0.3031    0.0368 C   0  0  0  0  0  0  0  0  0  0  0  0
    6.1155    1.4704    0.3680 C   0  0  0  0  0  0  0  0  0  0  0  0
    4.7194    1.4611    0.4455 C   0  0  0  0  0  0  0  0  0  0  0  0
    1.8403   -0.8256    0.8505 C   0  0  0  0  0  0  0  0  0  0  0  0
    0.4447   -0.8368    0.9268 C   0  0  0  0  0  0  0  0  0  0  0  0
   -6.6336    1.4490   -1.4232 H   0  0  0  0  0  0  0  0  0  0  0  0
   -7.7641   -0.5458   -0.4986 H   0  0  0  0  0  0  0  0  0  0  0  0
   -6.4298   -2.4758    0.2958 H   0  0  0  0  0  0  0  0  0  0  0  0
   -3.9681   -2.4242    0.1633 H   0  0  0  0  0  0  0  0  0  0  0  0
   -1.9797   -1.4663   -0.8768 H   0  0  0  0  0  0  0  0  0  0  0  0
   -2.0269    0.1289   -1.6785 H   0  0  0  0  0  0  0  0  0  0  0  0
   -2.1967    1.2527    0.5890 H   0  0  0  0  0  0  0  0  0  0  0  0
   -2.1414   -0.3534    1.3802 H   0  0  0  0  0  0  0  0  0  0  0  0
   -0.1936    2.1631   -0.5564 H   0  0  0  0  0  0  0  0  0  0  0  0
    2.2521    2.1861   -0.6981 H   0  0  0  0  0  0  0  0  0  0  0  0
    4.1826   -1.8133   -0.3582 H   0  0  0  0  0  0  0  0  0  0  0  0
    6.6407   -1.7795   -0.4777 H   0  0  0  0  0  0  0  0  0  0  0  0
    7.8876    0.3127   -0.0230 H   0  0  0  0  0  0  0  0  0  0  0  0
    6.6617    2.3831    0.5683 H   0  0  0  0  0  0  0  0  0  0  0  0
    4.2051    2.3734    0.7205 H   0  0  0  0  0  0  0  0  0  0  0  0
    2.3917   -1.6647    1.2558 H   0  0  0  0  0  0  0  0  0  0  0  0
   -0.0552   -1.6895    1.3695 H   0  0  0  0  0  0  0  0  0  0  0  0
  1  2  1  0
  2  3  2  0
  3  4  1  0
  4  5  2  0
  5  6  1  0
  6  7  2  0
  7  8  1  0
  8  9  1  0
  9 10  1  0
 10 11  1  0
 11 12  2  0
 12 13  1  0
 13 14  1  0
 14 15  2  0
 15 16  1  0
 16 17  2  0
 17 18  1  0
 18 19  2  0
 13 20  2  0
 20 21  1  0
  7  2  1  0
 21 10  2  0
 19 14  1  0
  3 22  1  0
  4 23  1  0
  5 24  1  0
  6 25  1  0
  8 26  1  0
  8 27  1  0
  9 28  1  0
  9 29  1  0
 11 30  1  0
 12 31  1  0
 15 32  1  0
 16 33  1  0
 17 34  1  0
 18 35  1  0
 19 36  1  0
 20 37  1  0
 21 38  1  0
M  RAD  1   1   3
M  END
$$$$
