
     RDKit          3D

 38 40  0  0  0  0  0  0  0  0999 V2000
   -4.0124    1.4243    2.0271 N   0  0  0  0  0  1  0  0  0  0  0  0
   -4.6680    0.5731    1.0893 C   0  0  0  0  0  0  0  0  0  0  0  0
   -6.0558    0.6717    0.9320 C   0  0  0  0  0  0  0  0  0  0  0  0
   -6.7193   -0.1401    0.0090 C   0  0  0  0  0  0  0  0  0  0  0  0
   -5.9988   -1.0516   -0.7652 C   0  0  0  0  0  0  0  0  0  0  0  0
   -4.6134   -1.1574   -0.6152 C   0  0  0  0  0  0  0  0  0  0  0  0
   -3.9354   -0.3571    0.3209 C   0  0  0  0  0  0  0  0  0  0  0  0
   -2.4352   -0.4654    0.4423 C   0  0  0  0  0  0  0  0  0  0  0  0
   -1.7451    0.5450   -0.4790 C   0  0  0  0  0  0  0  0  0  0  0  0
   -0.2490    0.4390   -0.3540 C   0  0  0  0  0  0  0  0  0  0  0  0
    0.4681   -0.4513   -1.1666 C   0  0  0  0  0  0  0  0  0  0  0  0
    1.8533   -0.5753   -1.0276 C   0  0  0  0  0  0  0  0  0  0  0  0
    2.5457    0.1830   -0.0662 C   0  0  0  0  0  0  0  0  0  0  0  0
    4.0178    0.0517    0.0827 C   0  0  0  0  0  0  0  0  0  0  0  0
    4.6359   -1.2108    0.0027 C   0  0  0  0  0  0  0  0  0  0  0  0
    6.0219   -1.3311    0.1439 C   0  0  0  0  0  0  0  0  0  0  0  0
    6.8052   -0.1962    0.3650 C   0  0  0  0  0  0  0  0  0  0  0  0
    6.2041    1.0618    0.4460 C   0  0  0  0  0  0  0  0  0  0  0  0
    4.8186    1.1880    0.3066 C   0  0  0  0  0  0  0  0  0  0  0  0
    1.8199    1.0645    0.7553 C   0  0  0  0  0  0  0  0  0  0  0  0
    0.4346    1.1867    0.6160 C   0  0  0  0  0  0  0  0  0  0  0  0
   -6.6211    1.3815    1.5231 H   0  0  0  0  0  0  0  0  0  0  0  0
   -7.7921   -0.0589   -0.1098 H   0  0  0  0  0  0  0  0  0  0  0  0
   -6.5137   -1.6747   -1.4850 H   0  0  0  0  0  0  0  0  0  0  0  0
   -4.0684   -1.8629   -1.2303 H   0  0  0  0  0  0  0  0  0  0  0  0
   -2.1083   -1.4949    0.1752 H   0  0  0  0  0  0  0  0  0  0  0  0
   -2.1237   -0.2923    1.4955 H   0  0  0  0  0  0  0  0  0  0  0  0
   -2.0491    0.3590   -1.5330 H   0  0  0  0  0  0  0  0  0  0  0  0
   -2.0712    1.5762   -0.2189 H   0  0  0  0  0  0  0  0  0  0  0  0
   -0.0457   -1.0488   -1.9096 H   0  0  0  0  0  0  0  0  0  0  0  0
    2.3848   -1.2541   -1.6827 H   0  0  0  0  0  0  0  0  0  0  0  0
    4.0467   -2.1061   -0.1508 H   0  0  0  0  0  0  0  0  0  0  0  0
    6.4884   -2.3060    0.0852 H   0  0  0  0  0  0  0  0  0  0  0  0
    7.8778   -0.2917    0.4737 H   0  0  0  0  0  0  0  0  0  0  0  0
    6.8127    1.9410    0.6138 H   0  0  0  0  0  0  0  0  0  0  0  0
    4.3760    2.1749    0.3561 H   0  0  0  0  0  0  0  0  0  0  0  0
    2.3207    1.6442    1.5205 H   0  0  0  0  0  0  0  0  0  0  0  0
   -0.1064    1.8612    1.2683 H   0  0  0  0  0  0  0  0  0  0  0  0
  1  2  1  0
  2  3  2  0
  3  4  1  0
  4  5  2  0
  5  6  1  0
  6  7  2  0
  7  8  1  0
  8  9  1  0
  9 10  1  0
 10 11  1  0
 11 12  2  0
 12 13  1  0
 13 14  1  0
 14 15  2  0
 15 16  1  0
 16 17  2  0
 17 18  1  0
 18 19  2  0
 13 20  2  0
 20 21  1  0
  7  2  1  0
 21 10  2  0
 19 14  1  0
  3 22  1  0
  4 23  1  0
  5 24  1  0
  6 25  1  0
  8 26  1  0
  8 27  1  0
  9 28  1  0
  9 29  1  0
 11 30  1  0
 12 31  1  0
 15 32  1  0
 16 33  1  0
 17 34  1  0
 18 35  1  0
 19 36  1  0
 20 37  1  0
 21 38  1  0
M  RAD  1   1   3
M  END
$$$$
