
     RDKit          3D

 38 40  0  0  0  0  0  0  0  0999 V2000
    4.9107   -1.3878    1.2155 N   0  0  0  0  0  1  0  0  0  0  0  0
    4.2102   -0.8022    0.1202 C   0  0  0  0  0  0  0  0  0  0  0  0
    4.4117   -1.3099   -1.1690 C   0  0  0  0  0  0  0  0  0  0  0  0
    3.7279   -0.7616   -2.2567 C   0  0  0  0  0  0  0  0  0  0  0  0
    2.8386    0.2967   -2.0619 C   0  0  0  0  0  0  0  0  0  0  0  0
    2.6328    0.8118   -0.7796 C   0  0  0  0  0  0  0  0  0  0  0  0
    3.3193    0.2732    0.3234 C   0  0  0  0  0  0  0  0  0  0  0  0
    3.0420    0.8114    1.7086 C   0  0  0  0  0  0  0  0  0  0  0  0
    2.0191   -0.0500    2.4632 C   0  0  0  0  0  0  0  0  0  0  0  0
    0.6740   -0.0450    1.7824 C   0  0  0  0  0  0  0  0  0  0  0  0
   -0.2021    1.0361    1.9571 C   0  0  0  0  0  0  0  0  0  0  0  0
   -1.4266    1.0689    1.2843 C   0  0  0  0  0  0  0  0  0  0  0  0
   -1.7932    0.0242    0.4167 C   0  0  0  0  0  0  0  0  0  0  0  0
   -3.0901    0.0634   -0.3060 C   0  0  0  0  0  0  0  0  0  0  0  0
   -4.2574    0.5105    0.3419 C   0  0  0  0  0  0  0  0  0  0  0  0
   -5.4769    0.5466   -0.3412 C   0  0  0  0  0  0  0  0  0  0  0  0
   -5.5455    0.1392   -1.6753 C   0  0  0  0  0  0  0  0  0  0  0  0
   -4.3946   -0.3056   -2.3294 C   0  0  0  0  0  0  0  0  0  0  0  0
   -3.1725   -0.3447   -1.6511 C   0  0  0  0  0  0  0  0  0  0  0  0
   -0.9085   -1.0547    0.2398 C   0  0  0  0  0  0  0  0  0  0  0  0
    0.3141   -1.0877    0.9154 C   0  0  0  0  0  0  0  0  0  0  0  0
    5.0960   -2.1339   -1.3281 H   0  0  0  0  0  0  0  0  0  0  0  0
    3.8850   -1.1598   -3.2508 H   0  0  0  0  0  0  0  0  0  0  0  0
    2.3045    0.7160   -2.9048 H   0  0  0  0  0  0  0  0  0  0  0  0
    1.9289    1.6239   -0.6445 H   0  0  0  0  0  0  0  0  0  0  0  0
    3.9872    0.8449    2.2920 H   0  0  0  0  0  0  0  0  0  0  0  0
    2.6746    1.8598    1.6509 H   0  0  0  0  0  0  0  0  0  0  0  0
    1.9082    0.3475    3.4955 H   0  0  0  0  0  0  0  0  0  0  0  0
    2.4009   -1.0898    2.5616 H   0  0  0  0  0  0  0  0  0  0  0  0
    0.0688    1.8593    2.6066 H   0  0  0  0  0  0  0  0  0  0  0  0
   -2.0763    1.9237    1.4243 H   0  0  0  0  0  0  0  0  0  0  0  0
   -4.2306    0.8153    1.3805 H   0  0  0  0  0  0  0  0  0  0  0  0
   -6.3703    0.8878    0.1657 H   0  0  0  0  0  0  0  0  0  0  0  0
   -6.4905    0.1683   -2.2022 H   0  0  0  0  0  0  0  0  0  0  0  0
   -4.4482   -0.6173   -3.3646 H   0  0  0  0  0  0  0  0  0  0  0  0
   -2.2897   -0.6765   -2.1830 H   0  0  0  0  0  0  0  0  0  0  0  0
   -1.1668   -1.8795   -0.4122 H   0  0  0  0  0  0  0  0  0  0  0  0
    0.9851   -1.9226    0.7548 H   0  0  0  0  0  0  0  0  0  0  0  0
  1  2  1  0
  2  3  2  0
  3  4  1  0
  4  5  2  0
  5  6  1  0
  6  7  2  0
  7  8  1  0
  8  9  1  0
  9 10  1  0
 10 11  1  0
 11 12  2  0
 12 13  1  0
 13 14  1  0
 14 15  2  0
 15 16  1  0
 16 17  2  0
 17 18  1  0
 18 19  2  0
 13 20  2  0
 20 21  1  0
  7  2  1  0
 21 10  2  0
 19 14  1  0
  3 22  1  0
  4 23  1  0
  5 24  1  0
  6 25  1  0
  8 26  1  0
  8 27  1  0
  9 28  1  0
  9 29  1  0
 11 30  1  0
 12 31  1  0
 15 32  1  0
 16 33  1  0
 17 34  1  0
 18 35  1  0
 19 36  1  0
 20 37  1  0
 21 38  1  0
M  RAD  1   1   3
M  END
$$$$
