
     RDKit          3D

 38 40  0  0  0  0  0  0  0  0999 V2000
   -3.9223    1.9553    1.6673 N   0  0  0  0  0  1  0  0  0  0  0  0
   -4.6229    0.9273    0.9702 C   0  0  0  0  0  0  0  0  0  0  0  0
   -6.0122    1.0250    0.8260 C   0  0  0  0  0  0  0  0  0  0  0  0
   -6.7194    0.0389    0.1342 C   0  0  0  0  0  0  0  0  0  0  0  0
   -6.0415   -1.0478   -0.4215 C   0  0  0  0  0  0  0  0  0  0  0  0
   -4.6550   -1.1542   -0.2827 C   0  0  0  0  0  0  0  0  0  0  0  0
   -3.9330   -0.1766    0.4242 C   0  0  0  0  0  0  0  0  0  0  0  0
   -2.4327   -0.2952    0.5331 C   0  0  0  0  0  0  0  0  0  0  0  0
   -1.7477    0.4526   -0.6147 C   0  0  0  0  0  0  0  0  0  0  0  0
   -0.2513    0.3371   -0.5027 C   0  0  0  0  0  0  0  0  0  0  0  0
    0.4761    1.2713    0.2493 C   0  0  0  0  0  0  0  0  0  0  0  0
    1.8619    1.1466    0.3816 C   0  0  0  0  0  0  0  0  0  0  0  0
    2.5444    0.0778   -0.2273 C   0  0  0  0  0  0  0  0  0  0  0  0
    4.0169   -0.0560   -0.0856 C   0  0  0  0  0  0  0  0  0  0  0  0
    4.8483    1.0784   -0.1523 C   0  0  0  0  0  0  0  0  0  0  0  0
    6.2343    0.9498   -0.0190 C   0  0  0  0  0  0  0  0  0  0  0  0
    6.8053   -0.3086    0.1829 C   0  0  0  0  0  0  0  0  0  0  0  0
    5.9915   -1.4415    0.2516 C   0  0  0  0  0  0  0  0  0  0  0  0
    4.6051   -1.3190    0.1180 C   0  0  0  0  0  0  0  0  0  0  0  0
    1.8083   -0.8645   -0.9683 C   0  0  0  0  0  0  0  0  0  0  0  0
    0.4227   -0.7379   -1.1006 C   0  0  0  0  0  0  0  0  0  0  0  0
   -6.5446    1.8685    1.2473 H   0  0  0  0  0  0  0  0  0  0  0  0
   -7.7932    0.1199    0.0243 H   0  0  0  0  0  0  0  0  0  0  0  0
   -6.5903   -1.8072   -0.9635 H   0  0  0  0  0  0  0  0  0  0  0  0
   -4.1432   -1.9986   -0.7279 H   0  0  0  0  0  0  0  0  0  0  0  0
   -2.0872    0.1102    1.5091 H   0  0  0  0  0  0  0  0  0  0  0  0
   -2.1359   -1.3673    0.5071 H   0  0  0  0  0  0  0  0  0  0  0  0
   -2.0859    0.0342   -1.5886 H   0  0  0  0  0  0  0  0  0  0  0  0
   -2.0438    1.5247   -0.5958 H   0  0  0  0  0  0  0  0  0  0  0  0
   -0.0312    2.0942    0.7379 H   0  0  0  0  0  0  0  0  0  0  0  0
    2.3969    1.8747    0.9781 H   0  0  0  0  0  0  0  0  0  0  0  0
    4.4289    2.0615   -0.3250 H   0  0  0  0  0  0  0  0  0  0  0  0
    6.8663    1.8266   -0.0757 H   0  0  0  0  0  0  0  0  0  0  0  0
    7.8783   -0.4058    0.2863 H   0  0  0  0  0  0  0  0  0  0  0  0
    6.4350   -2.4158    0.4120 H   0  0  0  0  0  0  0  0  0  0  0  0
    3.9923   -2.2086    0.1919 H   0  0  0  0  0  0  0  0  0  0  0  0
    2.3058   -1.6920   -1.4583 H   0  0  0  0  0  0  0  0  0  0  0  0
   -0.1252   -1.4778   -1.6711 H   0  0  0  0  0  0  0  0  0  0  0  0
  1  2  1  0
  2  3  2  0
  3  4  1  0
  4  5  2  0
  5  6  1  0
  6  7  2  0
  7  8  1  0
  8  9  1  0
  9 10  1  0
 10 11  1  0
 11 12  2  0
 12 13  1  0
 13 14  1  0
 14 15  2  0
 15 16  1  0
 16 17  2  0
 17 18  1  0
 18 19  2  0
 13 20  2  0
 20 21  1  0
  7  2  1  0
 21 10  2  0
 19 14  1  0
  3 22  1  0
  4 23  1  0
  5 24  1  0
  6 25  1  0
  8 26  1  0
  8 27  1  0
  9 28  1  0
  9 29  1  0
 11 30  1  0
 12 31  1  0
 15 32  1  0
 16 33  1  0
 17 34  1  0
 18 35  1  0
 19 36  1  0
 20 37  1  0
 21 38  1  0
M  RAD  1   1   3
M  END
$$$$
