
     RDKit          3D

 38 40  0  0  0  0  0  0  0  0999 V2000
   -4.8071    1.7636    1.2003 N   0  0  0  0  0  1  0  0  0  0  0  0
   -4.1897    0.5429    0.7979 C   0  0  0  0  0  0  0  0  0  0  0  0
   -4.4850   -0.6342    1.4962 C   0  0  0  0  0  0  0  0  0  0  0  0
   -3.8837   -1.8405    1.1292 C   0  0  0  0  0  0  0  0  0  0  0  0
   -2.9834   -1.8769    0.0628 C   0  0  0  0  0  0  0  0  0  0  0  0
   -2.6843   -0.7080   -0.6415 C   0  0  0  0  0  0  0  0  0  0  0  0
   -3.2873    0.5121   -0.2866 C   0  0  0  0  0  0  0  0  0  0  0  0
   -2.9093    1.7735   -1.0290 C   0  0  0  0  0  0  0  0  0  0  0  0
   -1.8328    2.5756   -0.2837 C   0  0  0  0  0  0  0  0  0  0  0  0
   -0.5414    1.8060   -0.1697 C   0  0  0  0  0  0  0  0  0  0  0  0
    0.3441    1.7473   -1.2555 C   0  0  0  0  0  0  0  0  0  0  0  0
    1.5157    0.9901   -1.1715 C   0  0  0  0  0  0  0  0  0  0  0  0
    1.8186    0.2700   -0.0018 C   0  0  0  0  0  0  0  0  0  0  0  0
    3.0587   -0.5427    0.0845 C   0  0  0  0  0  0  0  0  0  0  0  0
    3.0423   -1.8109    0.6960 C   0  0  0  0  0  0  0  0  0  0  0  0
    4.2111   -2.5743    0.7746 C   0  0  0  0  0  0  0  0  0  0  0  0
    5.4066   -2.0824    0.2463 C   0  0  0  0  0  0  0  0  0  0  0  0
    5.4360   -0.8259   -0.3627 C   0  0  0  0  0  0  0  0  0  0  0  0
    4.2700   -0.0585   -0.4451 C   0  0  0  0  0  0  0  0  0  0  0  0
    0.9242    0.3269    1.0822 C   0  0  0  0  0  0  0  0  0  0  0  0
   -0.2453    1.0867    0.9980 C   0  0  0  0  0  0  0  0  0  0  0  0
   -5.1784   -0.6138    2.3277 H   0  0  0  0  0  0  0  0  0  0  0  0
   -4.1131   -2.7470    1.6743 H   0  0  0  0  0  0  0  0  0  0  0  0
   -2.5132   -2.8110   -0.2158 H   0  0  0  0  0  0  0  0  0  0  0  0
   -1.9732   -0.7516   -1.4574 H   0  0  0  0  0  0  0  0  0  0  0  0
   -2.5481    1.5279   -2.0521 H   0  0  0  0  0  0  0  0  0  0  0  0
   -3.8090    2.4121   -1.1619 H   0  0  0  0  0  0  0  0  0  0  0  0
   -2.2052    2.8610    0.7245 H   0  0  0  0  0  0  0  0  0  0  0  0
   -1.6466    3.5233   -0.8344 H   0  0  0  0  0  0  0  0  0  0  0  0
    0.1209    2.2797   -2.1718 H   0  0  0  0  0  0  0  0  0  0  0  0
    2.1731    0.9486   -2.0308 H   0  0  0  0  0  0  0  0  0  0  0  0
    2.1231   -2.2194    1.0966 H   0  0  0  0  0  0  0  0  0  0  0  0
    4.1887   -3.5500    1.2427 H   0  0  0  0  0  0  0  0  0  0  0  0
    6.3102   -2.6749    0.3086 H   0  0  0  0  0  0  0  0  0  0  0  0
    6.3639   -0.4443   -0.7686 H   0  0  0  0  0  0  0  0  0  0  0  0
    4.3195    0.9197   -0.9066 H   0  0  0  0  0  0  0  0  0  0  0  0
    1.1347   -0.2069    2.0004 H   0  0  0  0  0  0  0  0  0  0  0  0
   -0.9255    1.1063    1.8407 H   0  0  0  0  0  0  0  0  0  0  0  0
  1  2  1  0
  2  3  2  0
  3  4  1  0
  4  5  2  0
  5  6  1  0
  6  7  2  0
  7  8  1  0
  8  9  1  0
  9 10  1  0
 10 11  1  0
 11 12  2  0
 12 13  1  0
 13 14  1  0
 14 15  2  0
 15 16  1  0
 16 17  2  0
 17 18  1  0
 18 19  2  0
 13 20  2  0
 20 21  1  0
  7  2  1  0
 21 10  2  0
 19 14  1  0
  3 22  1  0
  4 23  1  0
  5 24  1  0
  6 25  1  0
  8 26  1  0
  8 27  1  0
  9 28  1  0
  9 29  1  0
 11 30  1  0
 12 31  1  0
 15 32  1  0
 16 33  1  0
 17 34  1  0
 18 35  1  0
 19 36  1  0
 20 37  1  0
 21 38  1  0
M  RAD  1   1   3
M  END
$$$$
