
     RDKit          3D

 38 40  0  0  0  0  0  0  0  0999 V2000
    5.0035   -0.5777    1.4271 N   0  0  0  0  0  1  0  0  0  0  0  0
    4.2704    0.0006    0.3495 C   0  0  0  0  0  0  0  0  0  0  0  0
    4.5659    1.3086   -0.0531 C   0  0  0  0  0  0  0  0  0  0  0  0
    3.8535    1.9019   -1.0980 C   0  0  0  0  0  0  0  0  0  0  0  0
    2.8413    1.1914   -1.7458 C   0  0  0  0  0  0  0  0  0  0  0  0
    2.5408   -0.1151   -1.3528 C   0  0  0  0  0  0  0  0  0  0  0  0
    3.2544   -0.7267   -0.3065 C   0  0  0  0  0  0  0  0  0  0  0  0
    2.8772   -2.1220    0.1365 C   0  0  0  0  0  0  0  0  0  0  0  0
    1.9413   -2.1027    1.3537 C   0  0  0  0  0  0  0  0  0  0  0  0
    0.6245   -1.4412    1.0355 C   0  0  0  0  0  0  0  0  0  0  0  0
    0.4136   -0.0914    1.3550 C   0  0  0  0  0  0  0  0  0  0  0  0
   -0.7850    0.5376    1.0087 C   0  0  0  0  0  0  0  0  0  0  0  0
   -1.7946   -0.1715    0.3334 C   0  0  0  0  0  0  0  0  0  0  0  0
   -3.0663    0.4980   -0.0409 C   0  0  0  0  0  0  0  0  0  0  0  0
   -3.0626    1.8166   -0.5346 C   0  0  0  0  0  0  0  0  0  0  0  0
   -4.2614    2.4441   -0.8874 C   0  0  0  0  0  0  0  0  0  0  0  0
   -5.4744    1.7654   -0.7514 C   0  0  0  0  0  0  0  0  0  0  0  0
   -5.4913    0.4572   -0.2628 C   0  0  0  0  0  0  0  0  0  0  0  0
   -4.2956   -0.1756    0.0907 C   0  0  0  0  0  0  0  0  0  0  0  0
   -1.5772   -1.5236    0.0123 C   0  0  0  0  0  0  0  0  0  0  0  0
   -0.3766   -2.1507    0.3566 C   0  0  0  0  0  0  0  0  0  0  0  0
    5.3462    1.8684    0.4473 H   0  0  0  0  0  0  0  0  0  0  0  0
    4.0840    2.9144   -1.4033 H   0  0  0  0  0  0  0  0  0  0  0  0
    2.2857    1.6550   -2.5507 H   0  0  0  0  0  0  0  0  0  0  0  0
    1.7432   -0.6469   -1.8571 H   0  0  0  0  0  0  0  0  0  0  0  0
    2.3914   -2.6755   -0.6972 H   0  0  0  0  0  0  0  0  0  0  0  0
    3.7952   -2.6923    0.3950 H   0  0  0  0  0  0  0  0  0  0  0  0
    2.4392   -1.5879    2.2043 H   0  0  0  0  0  0  0  0  0  0  0  0
    1.7558   -3.1493    1.6795 H   0  0  0  0  0  0  0  0  0  0  0  0
    1.1819    0.4775    1.8641 H   0  0  0  0  0  0  0  0  0  0  0  0
   -0.9267    1.5762    1.2801 H   0  0  0  0  0  0  0  0  0  0  0  0
   -2.1325    2.3555   -0.6648 H   0  0  0  0  0  0  0  0  0  0  0  0
   -4.2491    3.4565   -1.2700 H   0  0  0  0  0  0  0  0  0  0  0  0
   -6.4011    2.2532   -1.0248 H   0  0  0  0  0  0  0  0  0  0  0  0
   -6.4324   -0.0665   -0.1545 H   0  0  0  0  0  0  0  0  0  0  0  0
   -4.3338   -1.1841    0.4829 H   0  0  0  0  0  0  0  0  0  0  0  0
   -2.3261   -2.0901   -0.5268 H   0  0  0  0  0  0  0  0  0  0  0  0
   -0.2222   -3.1874    0.0840 H   0  0  0  0  0  0  0  0  0  0  0  0
  1  2  1  0
  2  3  2  0
  3  4  1  0
  4  5  2  0
  5  6  1  0
  6  7  2  0
  7  8  1  0
  8  9  1  0
  9 10  1  0
 10 11  1  0
 11 12  2  0
 12 13  1  0
 13 14  1  0
 14 15  2  0
 15 16  1  0
 16 17  2  0
 17 18  1  0
 18 19  2  0
 13 20  2  0
 20 21  1  0
  7  2  1  0
 21 10  2  0
 19 14  1  0
  3 22  1  0
  4 23  1  0
  5 24  1  0
  6 25  1  0
  8 26  1  0
  8 27  1  0
  9 28  1  0
  9 29  1  0
 11 30  1  0
 12 31  1  0
 15 32  1  0
 16 33  1  0
 17 34  1  0
 18 35  1  0
 19 36  1  0
 20 37  1  0
 21 38  1  0
M  RAD  1   1   3
M  END
$$$$
