
     RDKit          3D

 38 40  0  0  0  0  0  0  0  0999 V2000
    3.9751   -2.4897   -0.1613 N   0  0  0  0  0  1  0  0  0  0  0  0
    4.6409   -1.2522    0.0819 C   0  0  0  0  0  0  0  0  0  0  0  0
    6.0358   -1.1951   -0.0254 C   0  0  0  0  0  0  0  0  0  0  0  0
    6.7101    0.0086    0.1928 C   0  0  0  0  0  0  0  0  0  0  0  0
    5.9936    1.1629    0.5147 C   0  0  0  0  0  0  0  0  0  0  0  0
    4.6012    1.1157    0.6243 C   0  0  0  0  0  0  0  0  0  0  0  0
    3.9115   -0.0926    0.4222 C   0  0  0  0  0  0  0  0  0  0  0  0
    2.4055   -0.1125    0.5135 C   0  0  0  0  0  0  0  0  0  0  0  0
    1.7783    0.1328   -0.8622 C   0  0  0  0  0  0  0  0  0  0  0  0
    0.2763    0.1086   -0.7706 C   0  0  0  0  0  0  0  0  0  0  0  0
   -0.4348    1.2839   -0.4870 C   0  0  0  0  0  0  0  0  0  0  0  0
   -1.8271    1.2558   -0.3681 C   0  0  0  0  0  0  0  0  0  0  0  0
   -2.5332    0.0489   -0.5218 C   0  0  0  0  0  0  0  0  0  0  0  0
   -4.0129    0.0178   -0.3951 C   0  0  0  0  0  0  0  0  0  0  0  0
   -4.7895   -0.7685   -1.2675 C   0  0  0  0  0  0  0  0  0  0  0  0
   -6.1822   -0.7958   -1.1464 C   0  0  0  0  0  0  0  0  0  0  0  0
   -6.8147   -0.0417   -0.1556 C   0  0  0  0  0  0  0  0  0  0  0  0
   -6.0556    0.7418    0.7164 C   0  0  0  0  0  0  0  0  0  0  0  0
   -4.6626    0.7737    0.5994 C   0  0  0  0  0  0  0  0  0  0  0  0
   -1.8141   -1.1293   -0.7927 C   0  0  0  0  0  0  0  0  0  0  0  0
   -0.4217   -1.0999   -0.9104 C   0  0  0  0  0  0  0  0  0  0  0  0
    6.5984   -2.0840   -0.2823 H   0  0  0  0  0  0  0  0  0  0  0  0
    7.7884    0.0478    0.1072 H   0  0  0  0  0  0  0  0  0  0  0  0
    6.5172    2.0963    0.6763 H   0  0  0  0  0  0  0  0  0  0  0  0
    4.0598    2.0223    0.8655 H   0  0  0  0  0  0  0  0  0  0  0  0
    2.0601    0.6711    1.2240 H   0  0  0  0  0  0  0  0  0  0  0  0
    2.0601   -1.0886    0.9188 H   0  0  0  0  0  0  0  0  0  0  0  0
    2.1159    1.1166   -1.2574 H   0  0  0  0  0  0  0  0  0  0  0  0
    2.1232   -0.6459   -1.5778 H   0  0  0  0  0  0  0  0  0  0  0  0
    0.0893    2.2231   -0.3596 H   0  0  0  0  0  0  0  0  0  0  0  0
   -2.3527    2.1816   -0.1702 H   0  0  0  0  0  0  0  0  0  0  0  0
   -4.3217   -1.3478   -2.0536 H   0  0  0  0  0  0  0  0  0  0  0  0
   -6.7718   -1.3998   -1.8240 H   0  0  0  0  0  0  0  0  0  0  0  0
   -7.8928   -0.0646   -0.0634 H   0  0  0  0  0  0  0  0  0  0  0  0
   -6.5467    1.3228    1.4864 H   0  0  0  0  0  0  0  0  0  0  0  0
   -4.0933    1.3747    1.2972 H   0  0  0  0  0  0  0  0  0  0  0  0
   -2.3265   -2.0779   -0.8927 H   0  0  0  0  0  0  0  0  0  0  0  0
    0.1134   -2.0211   -1.1056 H   0  0  0  0  0  0  0  0  0  0  0  0
  1  2  1  0
  2  3  2  0
  3  4  1  0
  4  5  2  0
  5  6  1  0
  6  7  2  0
  7  8  1  0
  8  9  1  0
  9 10  1  0
 10 11  1  0
 11 12  2  0
 12 13  1  0
 13 14  1  0
 14 15  2  0
 15 16  1  0
 16 17  2  0
 17 18  1  0
 18 19  2  0
 13 20  2  0
 20 21  1  0
  7  2  1  0
 21 10  2  0
 19 14  1  0
  3 22  1  0
  4 23  1  0
  5 24  1  0
  6 25  1  0
  8 26  1  0
  8 27  1  0
  9 28  1  0
  9 29  1  0
 11 30  1  0
 12 31  1  0
 15 32  1  0
 16 33  1  0
 17 34  1  0
 18 35  1  0
 19 36  1  0
 20 37  1  0
 21 38  1  0
M  RAD  1   1   3
M  END
$$$$
