
     RDKit          3D

 38 40  0  0  0  0  0  0  0  0999 V2000
    4.9398   -1.4024    0.9172 N   0  0  0  0  0  1  0  0  0  0  0  0
    4.2107   -0.2107    0.6317 C   0  0  0  0  0  0  0  0  0  0  0  0
    4.3765    0.9061    1.4598 C   0  0  0  0  0  0  0  0  0  0  0  0
    3.6644    2.0812    1.2084 C   0  0  0  0  0  0  0  0  0  0  0  0
    2.7820    2.1464    0.1285 C   0  0  0  0  0  0  0  0  0  0  0  0
    2.6117    1.0381   -0.7049 C   0  0  0  0  0  0  0  0  0  0  0  0
    3.3271   -0.1492   -0.4669 C   0  0  0  0  0  0  0  0  0  0  0  0
    3.0880   -1.3526   -1.3500 C   0  0  0  0  0  0  0  0  0  0  0  0
    2.0847   -2.3319   -0.7238 C   0  0  0  0  0  0  0  0  0  0  0  0
    0.7217   -1.7083   -0.5623 C   0  0  0  0  0  0  0  0  0  0  0  0
   -0.1479   -1.6174   -1.6587 C   0  0  0  0  0  0  0  0  0  0  0  0
   -1.3901   -0.9911   -1.5252 C   0  0  0  0  0  0  0  0  0  0  0  0
   -1.7815   -0.4360   -0.2935 C   0  0  0  0  0  0  0  0  0  0  0  0
   -3.0973    0.2383   -0.1536 C   0  0  0  0  0  0  0  0  0  0  0  0
   -4.2461   -0.3003   -0.7640 C   0  0  0  0  0  0  0  0  0  0  0  0
   -5.4836    0.3369   -0.6308 C   0  0  0  0  0  0  0  0  0  0  0  0
   -5.5888    1.5162    0.1099 C   0  0  0  0  0  0  0  0  0  0  0  0
   -4.4566    2.0610    0.7195 C   0  0  0  0  0  0  0  0  0  0  0  0
   -3.2167    1.4277    0.5905 C   0  0  0  0  0  0  0  0  0  0  0  0
   -0.9032   -0.5240    0.8016 C   0  0  0  0  0  0  0  0  0  0  0  0
    0.3372   -1.1530    0.6675 C   0  0  0  0  0  0  0  0  0  0  0  0
    5.0552    0.8623    2.3024 H   0  0  0  0  0  0  0  0  0  0  0  0
    3.7940    2.9406    1.8533 H   0  0  0  0  0  0  0  0  0  0  0  0
    2.2258    3.0555   -0.0609 H   0  0  0  0  0  0  0  0  0  0  0  0
    1.9128    1.1015   -1.5299 H   0  0  0  0  0  0  0  0  0  0  0  0
    4.0487   -1.8826   -1.5266 H   0  0  0  0  0  0  0  0  0  0  0  0
    2.7206   -1.0329   -2.3501 H   0  0  0  0  0  0  0  0  0  0  0  0
    2.4677   -2.6883    0.2575 H   0  0  0  0  0  0  0  0  0  0  0  0
    2.0024   -3.2273   -1.3776 H   0  0  0  0  0  0  0  0  0  0  0  0
    0.1416   -2.0224   -2.6205 H   0  0  0  0  0  0  0  0  0  0  0  0
   -2.0346   -0.9199   -2.3922 H   0  0  0  0  0  0  0  0  0  0  0  0
   -4.1908   -1.2223   -1.3289 H   0  0  0  0  0  0  0  0  0  0  0  0
   -6.3625   -0.0863   -1.0999 H   0  0  0  0  0  0  0  0  0  0  0  0
   -6.5477    2.0079    0.2113 H   0  0  0  0  0  0  0  0  0  0  0  0
   -4.5386    2.9772    1.2899 H   0  0  0  0  0  0  0  0  0  0  0  0
   -2.3491    1.8772    1.0570 H   0  0  0  0  0  0  0  0  0  0  0  0
   -1.1802   -0.1167    1.7658 H   0  0  0  0  0  0  0  0  0  0  0  0
    1.0025   -1.1986    1.5210 H   0  0  0  0  0  0  0  0  0  0  0  0
  1  2  1  0
  2  3  2  0
  3  4  1  0
  4  5  2  0
  5  6  1  0
  6  7  2  0
  7  8  1  0
  8  9  1  0
  9 10  1  0
 10 11  1  0
 11 12  2  0
 12 13  1  0
 13 14  1  0
 14 15  2  0
 15 16  1  0
 16 17  2  0
 17 18  1  0
 18 19  2  0
 13 20  2  0
 20 21  1  0
  7  2  1  0
 21 10  2  0
 19 14  1  0
  3 22  1  0
  4 23  1  0
  5 24  1  0
  6 25  1  0
  8 26  1  0
  8 27  1  0
  9 28  1  0
  9 29  1  0
 11 30  1  0
 12 31  1  0
 15 32  1  0
 16 33  1  0
 17 34  1  0
 18 35  1  0
 19 36  1  0
 20 37  1  0
 21 38  1  0
M  RAD  1   1   3
M  END
$$$$
