
     RDKit          3D

 38 40  0  0  0  0  0  0  0  0999 V2000
    4.9455   -1.2071    1.3286 N   0  0  0  0  0  1  0  0  0  0  0  0
    4.2405   -0.6285    0.2326 C   0  0  0  0  0  0  0  0  0  0  0  0
    4.4857   -1.1003   -1.0626 C   0  0  0  0  0  0  0  0  0  0  0  0
    3.7990   -0.5581   -2.1515 C   0  0  0  0  0  0  0  0  0  0  0  0
    2.8628    0.4581   -1.9519 C   0  0  0  0  0  0  0  0  0  0  0  0
    2.6129    0.9371   -0.6635 C   0  0  0  0  0  0  0  0  0  0  0  0
    3.3019    0.4046    0.4409 C   0  0  0  0  0  0  0  0  0  0  0  0
    2.9786    0.9023    1.8312 C   0  0  0  0  0  0  0  0  0  0  0  0
    1.9798   -0.0160    2.5501 C   0  0  0  0  0  0  0  0  0  0  0  0
    0.6469   -0.0516    1.8466 C   0  0  0  0  0  0  0  0  0  0  0  0
    0.3423   -1.0922    0.9562 C   0  0  0  0  0  0  0  0  0  0  0  0
   -0.8711   -1.0968    0.2633 C   0  0  0  0  0  0  0  0  0  0  0  0
   -1.8007   -0.0569    0.4441 C   0  0  0  0  0  0  0  0  0  0  0  0
   -3.0878   -0.0583   -0.2969 C   0  0  0  0  0  0  0  0  0  0  0  0
   -3.6052    1.1354   -0.8355 C   0  0  0  0  0  0  0  0  0  0  0  0
   -4.8165    1.1307   -1.5339 C   0  0  0  0  0  0  0  0  0  0  0  0
   -5.5242   -0.0614   -1.7021 C   0  0  0  0  0  0  0  0  0  0  0  0
   -5.0218   -1.2521   -1.1726 C   0  0  0  0  0  0  0  0  0  0  0  0
   -3.8105   -1.2536   -0.4741 C   0  0  0  0  0  0  0  0  0  0  0  0
   -1.4884    0.9870    1.3336 C   0  0  0  0  0  0  0  0  0  0  0  0
   -0.2742    0.9906    2.0257 C   0  0  0  0  0  0  0  0  0  0  0  0
    5.2067   -1.8916   -1.2257 H   0  0  0  0  0  0  0  0  0  0  0  0
    3.9903   -0.9284   -3.1504 H   0  0  0  0  0  0  0  0  0  0  0  0
    2.3267    0.8725   -2.7959 H   0  0  0  0  0  0  0  0  0  0  0  0
    1.8735    1.7164   -0.5251 H   0  0  0  0  0  0  0  0  0  0  0  0
    2.5688    1.9356    1.7877 H   0  0  0  0  0  0  0  0  0  0  0  0
    3.9114    0.9629    2.4321 H   0  0  0  0  0  0  0  0  0  0  0  0
    1.8357    0.3546    3.5883 H   0  0  0  0  0  0  0  0  0  0  0  0
    2.4025   -1.0412    2.6337 H   0  0  0  0  0  0  0  0  0  0  0  0
    1.0517   -1.8929    0.7864 H   0  0  0  0  0  0  0  0  0  0  0  0
   -1.0720   -1.9021   -0.4320 H   0  0  0  0  0  0  0  0  0  0  0  0
   -3.0649    2.0680   -0.7323 H   0  0  0  0  0  0  0  0  0  0  0  0
   -5.2049    2.0522   -1.9482 H   0  0  0  0  0  0  0  0  0  0  0  0
   -6.4618   -0.0627   -2.2428 H   0  0  0  0  0  0  0  0  0  0  0  0
   -5.5729   -2.1748   -1.3005 H   0  0  0  0  0  0  0  0  0  0  0  0
   -3.4482   -2.1852   -0.0578 H   0  0  0  0  0  0  0  0  0  0  0  0
   -2.1885    1.7952    1.5039 H   0  0  0  0  0  0  0  0  0  0  0  0
   -0.0496    1.8084    2.6992 H   0  0  0  0  0  0  0  0  0  0  0  0
  1  2  1  0
  2  3  2  0
  3  4  1  0
  4  5  2  0
  5  6  1  0
  6  7  2  0
  7  8  1  0
  8  9  1  0
  9 10  1  0
 10 11  1  0
 11 12  2  0
 12 13  1  0
 13 14  1  0
 14 15  2  0
 15 16  1  0
 16 17  2  0
 17 18  1  0
 18 19  2  0
 13 20  2  0
 20 21  1  0
  7  2  1  0
 21 10  2  0
 19 14  1  0
  3 22  1  0
  4 23  1  0
  5 24  1  0
  6 25  1  0
  8 26  1  0
  8 27  1  0
  9 28  1  0
  9 29  1  0
 11 30  1  0
 12 31  1  0
 15 32  1  0
 16 33  1  0
 17 34  1  0
 18 35  1  0
 19 36  1  0
 20 37  1  0
 21 38  1  0
M  RAD  1   1   3
M  END
$$$$
