
     RDKit          3D

 38 40  0  0  0  0  0  0  0  0999 V2000
   -4.1389    0.7348    2.0816 N   0  0  0  0  0  1  0  0  0  0  0  0
   -4.7281    0.3064    0.8557 C   0  0  0  0  0  0  0  0  0  0  0  0
   -6.1000    0.5001    0.6535 C   0  0  0  0  0  0  0  0  0  0  0  0
   -6.6981    0.1031   -0.5449 C   0  0  0  0  0  0  0  0  0  0  0  0
   -5.9275   -0.4853   -1.5495 C   0  0  0  0  0  0  0  0  0  0  0  0
   -4.5575   -0.6830   -1.3568 C   0  0  0  0  0  0  0  0  0  0  0  0
   -3.9459   -0.3019   -0.1496 C   0  0  0  0  0  0  0  0  0  0  0  0
   -2.4594   -0.4951    0.0232 C   0  0  0  0  0  0  0  0  0  0  0  0
   -1.6978    0.7593   -0.4156 C   0  0  0  0  0  0  0  0  0  0  0  0
   -0.2156    0.5670   -0.2390 C   0  0  0  0  0  0  0  0  0  0  0  0
    0.5545    0.0125   -1.2718 C   0  0  0  0  0  0  0  0  0  0  0  0
    1.9251   -0.1978   -1.0964 C   0  0  0  0  0  0  0  0  0  0  0  0
    2.5490    0.1345    0.1198 C   0  0  0  0  0  0  0  0  0  0  0  0
    4.0054   -0.0889    0.3075 C   0  0  0  0  0  0  0  0  0  0  0  0
    4.7937    0.8610    0.9850 C   0  0  0  0  0  0  0  0  0  0  0  0
    6.1646    0.6485    1.1600 C   0  0  0  0  0  0  0  0  0  0  0  0
    6.7633   -0.5114    0.6635 C   0  0  0  0  0  0  0  0  0  0  0  0
    5.9923   -1.4615   -0.0097 C   0  0  0  0  0  0  0  0  0  0  0  0
    4.6211   -1.2540   -0.1885 C   0  0  0  0  0  0  0  0  0  0  0  0
    1.7696    0.6777    1.1572 C   0  0  0  0  0  0  0  0  0  0  0  0
    0.3989    0.8866    0.9807 C   0  0  0  0  0  0  0  0  0  0  0  0
   -6.7034    0.9627    1.4245 H   0  0  0  0  0  0  0  0  0  0  0  0
   -7.7587    0.2565   -0.6968 H   0  0  0  0  0  0  0  0  0  0  0  0
   -6.3913   -0.7856   -2.4802 H   0  0  0  0  0  0  0  0  0  0  0  0
   -3.9724   -1.1321   -2.1499 H   0  0  0  0  0  0  0  0  0  0  0  0
   -2.1193   -1.3659   -0.5801 H   0  0  0  0  0  0  0  0  0  0  0  0
   -2.2253   -0.7286    1.0849 H   0  0  0  0  0  0  0  0  0  0  0  0
   -1.9245    0.9809   -1.4820 H   0  0  0  0  0  0  0  0  0  0  0  0
   -2.0366    1.6341    0.1822 H   0  0  0  0  0  0  0  0  0  0  0  0
    0.0934   -0.2555   -2.2145 H   0  0  0  0  0  0  0  0  0  0  0  0
    2.4995   -0.6070   -1.9178 H   0  0  0  0  0  0  0  0  0  0  0  0
    4.3539    1.7752    1.3634 H   0  0  0  0  0  0  0  0  0  0  0  0
    6.7638    1.3859    1.6784 H   0  0  0  0  0  0  0  0  0  0  0  0
    7.8245   -0.6739    0.8004 H   0  0  0  0  0  0  0  0  0  0  0  0
    6.4567   -2.3619   -0.3907 H   0  0  0  0  0  0  0  0  0  0  0  0
    4.0400   -2.0121   -0.6983 H   0  0  0  0  0  0  0  0  0  0  0  0
    2.2159    0.9216    2.1131 H   0  0  0  0  0  0  0  0  0  0  0  0
   -0.1850    1.2931    1.7973 H   0  0  0  0  0  0  0  0  0  0  0  0
  1  2  1  0
  2  3  2  0
  3  4  1  0
  4  5  2  0
  5  6  1  0
  6  7  2  0
  7  8  1  0
  8  9  1  0
  9 10  1  0
 10 11  1  0
 11 12  2  0
 12 13  1  0
 13 14  1  0
 14 15  2  0
 15 16  1  0
 16 17  2  0
 17 18  1  0
 18 19  2  0
 13 20  2  0
 20 21  1  0
  7  2  1  0
 21 10  2  0
 19 14  1  0
  3 22  1  0
  4 23  1  0
  5 24  1  0
  6 25  1  0
  8 26  1  0
  8 27  1  0
  9 28  1  0
  9 29  1  0
 11 30  1  0
 12 31  1  0
 15 32  1  0
 16 33  1  0
 17 34  1  0
 18 35  1  0
 19 36  1  0
 20 37  1  0
 21 38  1  0
M  RAD  1   1   3
M  END
$$$$
