
     RDKit          3D

 38 40  0  0  0  0  0  0  0  0999 V2000
   -3.9128    2.4103    0.9298 N   0  0  0  0  0  1  0  0  0  0  0  0
   -4.6132    1.3443    0.2922 C   0  0  0  0  0  0  0  0  0  0  0  0
   -6.0067    1.2763    0.4101 C   0  0  0  0  0  0  0  0  0  0  0  0
   -6.7144    0.2334   -0.1922 C   0  0  0  0  0  0  0  0  0  0  0  0
   -6.0327   -0.7499   -0.9119 C   0  0  0  0  0  0  0  0  0  0  0  0
   -4.6419   -0.6904   -1.0353 C   0  0  0  0  0  0  0  0  0  0  0  0
   -3.9192    0.3621   -0.4468 C   0  0  0  0  0  0  0  0  0  0  0  0
   -2.4151    0.3877   -0.5656 C   0  0  0  0  0  0  0  0  0  0  0  0
   -1.7677   -0.3283    0.6236 C   0  0  0  0  0  0  0  0  0  0  0  0
   -0.2676   -0.2983    0.5062 C   0  0  0  0  0  0  0  0  0  0  0  0
    0.4090   -1.3144   -0.1846 C   0  0  0  0  0  0  0  0  0  0  0  0
    1.7990   -1.2696   -0.3235 C   0  0  0  0  0  0  0  0  0  0  0  0
    2.5372   -0.2019    0.2188 C   0  0  0  0  0  0  0  0  0  0  0  0
    4.0144   -0.1530    0.0714 C   0  0  0  0  0  0  0  0  0  0  0  0
    4.6262   -0.5288   -1.1399 C   0  0  0  0  0  0  0  0  0  0  0  0
    6.0171   -0.4810   -1.2757 C   0  0  0  0  0  0  0  0  0  0  0  0
    6.8117   -0.0598   -0.2072 C   0  0  0  0  0  0  0  0  0  0  0  0
    6.2171    0.3152    0.9995 C   0  0  0  0  0  0  0  0  0  0  0  0
    4.8267    0.2704    1.1407 C   0  0  0  0  0  0  0  0  0  0  0  0
    1.8524    0.8213    0.8990 C   0  0  0  0  0  0  0  0  0  0  0  0
    0.4623    0.7758    1.0362 C   0  0  0  0  0  0  0  0  0  0  0  0
   -6.5424    2.0306    0.9729 H   0  0  0  0  0  0  0  0  0  0  0  0
   -7.7915    0.1846   -0.0968 H   0  0  0  0  0  0  0  0  0  0  0  0
   -6.5820   -1.5612   -1.3718 H   0  0  0  0  0  0  0  0  0  0  0  0
   -4.1276   -1.4664   -1.5890 H   0  0  0  0  0  0  0  0  0  0  0  0
   -2.0539    1.4380   -0.6180 H   0  0  0  0  0  0  0  0  0  0  0  0
   -2.1027   -0.1074   -1.5119 H   0  0  0  0  0  0  0  0  0  0  0  0
   -2.0796    0.1605    1.5729 H   0  0  0  0  0  0  0  0  0  0  0  0
   -2.1215   -1.3823    0.6636 H   0  0  0  0  0  0  0  0  0  0  0  0
   -0.1403   -2.1429   -0.6147 H   0  0  0  0  0  0  0  0  0  0  0  0
    2.2979   -2.0782   -0.8427 H   0  0  0  0  0  0  0  0  0  0  0  0
    4.0289   -0.8419   -1.9870 H   0  0  0  0  0  0  0  0  0  0  0  0
    6.4788   -0.7677   -2.2117 H   0  0  0  0  0  0  0  0  0  0  0  0
    7.8881   -0.0240   -0.3144 H   0  0  0  0  0  0  0  0  0  0  0  0
    6.8343    0.6379    1.8281 H   0  0  0  0  0  0  0  0  0  0  0  0
    4.3885    0.5495    2.0907 H   0  0  0  0  0  0  0  0  0  0  0  0
    2.3897    1.6684    1.3068 H   0  0  0  0  0  0  0  0  0  0  0  0
   -0.0463    1.5812    1.5517 H   0  0  0  0  0  0  0  0  0  0  0  0
  1  2  1  0
  2  3  2  0
  3  4  1  0
  4  5  2  0
  5  6  1  0
  6  7  2  0
  7  8  1  0
  8  9  1  0
  9 10  1  0
 10 11  1  0
 11 12  2  0
 12 13  1  0
 13 14  1  0
 14 15  2  0
 15 16  1  0
 16 17  2  0
 17 18  1  0
 18 19  2  0
 13 20  2  0
 20 21  1  0
  7  2  1  0
 21 10  2  0
 19 14  1  0
  3 22  1  0
  4 23  1  0
  5 24  1  0
  6 25  1  0
  8 26  1  0
  8 27  1  0
  9 28  1  0
  9 29  1  0
 11 30  1  0
 12 31  1  0
 15 32  1  0
 16 33  1  0
 17 34  1  0
 18 35  1  0
 19 36  1  0
 20 37  1  0
 21 38  1  0
M  RAD  1   1   3
M  END
$$$$
