
     RDKit          3D

 38 40  0  0  0  0  0  0  0  0999 V2000
   -3.9614    1.3943    2.0325 N   0  0  0  0  0  1  0  0  0  0  0  0
   -4.6024    0.3418    1.3148 C   0  0  0  0  0  0  0  0  0  0  0  0
   -6.0013    0.2933    1.2792 C   0  0  0  0  0  0  0  0  0  0  0  0
   -6.6530   -0.7187    0.5703 C   0  0  0  0  0  0  0  0  0  0  0  0
   -5.9101   -1.6850   -0.1107 C   0  0  0  0  0  0  0  0  0  0  0  0
   -4.5135   -1.6450   -0.0809 C   0  0  0  0  0  0  0  0  0  0  0  0
   -3.8452   -0.6408    0.6413 C   0  0  0  0  0  0  0  0  0  0  0  0
   -2.3369   -0.5983    0.6324 C   0  0  0  0  0  0  0  0  0  0  0  0
   -1.8290    0.2936   -0.5045 C   0  0  0  0  0  0  0  0  0  0  0  0
   -0.3246    0.3385   -0.5098 C   0  0  0  0  0  0  0  0  0  0  0  0
    0.3572    1.2974    0.2537 C   0  0  0  0  0  0  0  0  0  0  0  0
    1.7545    1.3195    0.2759 C   0  0  0  0  0  0  0  0  0  0  0  0
    2.4957    0.3749   -0.4570 C   0  0  0  0  0  0  0  0  0  0  0  0
    3.9808    0.3971   -0.4324 C   0  0  0  0  0  0  0  0  0  0  0  0
    4.6791    1.6190   -0.4763 C   0  0  0  0  0  0  0  0  0  0  0  0
    6.0770    1.6371   -0.4534 C   0  0  0  0  0  0  0  0  0  0  0  0
    6.7927    0.4398   -0.3856 C   0  0  0  0  0  0  0  0  0  0  0  0
    6.1118   -0.7788   -0.3409 C   0  0  0  0  0  0  0  0  0  0  0  0
    4.7140   -0.8031   -0.3645 C   0  0  0  0  0  0  0  0  0  0  0  0
    1.8070   -0.5937   -1.2095 C   0  0  0  0  0  0  0  0  0  0  0  0
    0.4096   -0.6139   -1.2316 C   0  0  0  0  0  0  0  0  0  0  0  0
   -6.5849    1.0433    1.7983 H   0  0  0  0  0  0  0  0  0  0  0  0
   -7.7346   -0.7509    0.5447 H   0  0  0  0  0  0  0  0  0  0  0  0
   -6.4168   -2.4641   -0.6655 H   0  0  0  0  0  0  0  0  0  0  0  0
   -3.9523   -2.3966   -0.6223 H   0  0  0  0  0  0  0  0  0  0  0  0
   -1.9595   -0.2208    1.6078 H   0  0  0  0  0  0  0  0  0  0  0  0
   -1.9311   -1.6268    0.5069 H   0  0  0  0  0  0  0  0  0  0  0  0
   -2.2347    1.3226   -0.3861 H   0  0  0  0  0  0  0  0  0  0  0  0
   -2.1977   -0.0961   -1.4792 H   0  0  0  0  0  0  0  0  0  0  0  0
   -0.1939    2.0254    0.8364 H   0  0  0  0  0  0  0  0  0  0  0  0
    2.2552    2.0627    0.8836 H   0  0  0  0  0  0  0  0  0  0  0  0
    4.1452    2.5584   -0.5461 H   0  0  0  0  0  0  0  0  0  0  0  0
    6.6059    2.5807   -0.4917 H   0  0  0  0  0  0  0  0  0  0  0  0
    7.8747    0.4562   -0.3676 H   0  0  0  0  0  0  0  0  0  0  0  0
    6.6675   -1.7059   -0.2844 H   0  0  0  0  0  0  0  0  0  0  0  0
    4.2070   -1.7583   -0.3115 H   0  0  0  0  0  0  0  0  0  0  0  0
    2.3487   -1.3272   -1.7932 H   0  0  0  0  0  0  0  0  0  0  0  0
   -0.1005   -1.3718   -1.8134 H   0  0  0  0  0  0  0  0  0  0  0  0
  1  2  1  0
  2  3  2  0
  3  4  1  0
  4  5  2  0
  5  6  1  0
  6  7  2  0
  7  8  1  0
  8  9  1  0
  9 10  1  0
 10 11  1  0
 11 12  2  0
 12 13  1  0
 13 14  1  0
 14 15  2  0
 15 16  1  0
 16 17  2  0
 17 18  1  0
 18 19  2  0
 13 20  2  0
 20 21  1  0
  7  2  1  0
 21 10  2  0
 19 14  1  0
  3 22  1  0
  4 23  1  0
  5 24  1  0
  6 25  1  0
  8 26  1  0
  8 27  1  0
  9 28  1  0
  9 29  1  0
 11 30  1  0
 12 31  1  0
 15 32  1  0
 16 33  1  0
 17 34  1  0
 18 35  1  0
 19 36  1  0
 20 37  1  0
 21 38  1  0
M  RAD  1   1   3
M  END
$$$$
