
     RDKit          3D

 32 33  0  0  0  0  0  0  0  0999 V2000
    5.5411    1.2519    0.2050 C   0  0  0  0  0  0  0  0  0  0  0  0
    4.1511    1.3258   -0.0945 O   0  0  0  0  0  0  0  0  0  0  0  0
    3.2756    0.2300   -0.0682 C   0  0  0  0  0  0  0  0  0  0  0  0
    3.7026   -1.0685    0.2647 C   0  0  0  0  0  0  0  0  0  0  0  0
    2.7899   -2.1254    0.2847 C   0  0  0  0  0  0  0  0  0  0  0  0
    1.4454   -1.9057   -0.0305 C   0  0  0  0  0  0  0  0  0  0  0  0
    0.5330   -3.0008    0.0139 N   0  0  0  0  0  1  0  0  0  0  0  0
    1.0069   -0.6128   -0.3819 C   0  0  0  0  0  0  0  0  0  0  0  0
   -0.4431   -0.3356   -0.6954 C   0  0  0  0  0  0  0  0  0  0  0  0
   -1.2249   -0.0376    0.5876 C   0  0  0  0  0  0  0  0  0  0  0  0
   -2.6713    0.2357    0.2745 C   0  0  0  0  0  0  0  0  0  0  0  0
   -3.0986    1.5415   -0.0195 C   0  0  0  0  0  0  0  0  0  0  0  0
   -4.4366    1.7884   -0.3425 C   0  0  0  0  0  0  0  0  0  0  0  0
   -5.3534    0.7342   -0.3839 C   0  0  0  0  0  0  0  0  0  0  0  0
   -4.9328   -0.5695   -0.1065 C   0  0  0  0  0  0  0  0  0  0  0  0
   -3.5957   -0.8208    0.2170 C   0  0  0  0  0  0  0  0  0  0  0  0
    1.9295    0.4473   -0.3843 C   0  0  0  0  0  0  0  0  0  0  0  0
    5.9875    2.2625    0.1065 H   0  0  0  0  0  0  0  0  0  0  0  0
    5.6888    0.8979    1.2472 H   0  0  0  0  0  0  0  0  0  0  0  0
    6.0493    0.5677   -0.5070 H   0  0  0  0  0  0  0  0  0  0  0  0
    4.7352   -1.2705    0.5141 H   0  0  0  0  0  0  0  0  0  0  0  0
    3.1295   -3.1188    0.5504 H   0  0  0  0  0  0  0  0  0  0  0  0
   -0.8941   -1.2059   -1.2204 H   0  0  0  0  0  0  0  0  0  0  0  0
   -0.5206    0.5323   -1.3873 H   0  0  0  0  0  0  0  0  0  0  0  0
   -0.7783    0.8419    1.1022 H   0  0  0  0  0  0  0  0  0  0  0  0
   -1.1486   -0.9013    1.2844 H   0  0  0  0  0  0  0  0  0  0  0  0
   -2.3962    2.3656    0.0000 H   0  0  0  0  0  0  0  0  0  0  0  0
   -4.7621    2.7965   -0.5641 H   0  0  0  0  0  0  0  0  0  0  0  0
   -6.3883    0.9267   -0.6354 H   0  0  0  0  0  0  0  0  0  0  0  0
   -5.6421   -1.3860   -0.1455 H   0  0  0  0  0  0  0  0  0  0  0  0
   -3.2803   -1.8367    0.4206 H   0  0  0  0  0  0  0  0  0  0  0  0
    1.6017    1.4499   -0.6316 H   0  0  0  0  0  0  0  0  0  0  0  0
  1  2  1  0
  2  3  1  0
  3  4  1  0
  4  5  2  0
  5  6  1  0
  6  7  1  0
  6  8  2  0
  8  9  1  0
  9 10  1  0
 10 11  1  0
 11 12  2  0
 12 13  1  0
 13 14  2  0
 14 15  1  0
 15 16  2  0
  8 17  1  0
 17  3  2  0
 16 11  1  0
  1 18  1  0
  1 19  1  0
  1 20  1  0
  4 21  1  0
  5 22  1  0
  9 23  1  0
  9 24  1  0
 10 25  1  0
 10 26  1  0
 12 27  1  0
 13 28  1  0
 14 29  1  0
 15 30  1  0
 16 31  1  0
 17 32  1  0
M  RAD  1   7   3
M  END
$$$$
