
     RDKit          3D

 32 33  0  0  0  0  0  0  0  0999 V2000
    5.4092    1.4777   -0.8605 C   0  0  0  0  0  0  0  0  0  0  0  0
    4.0009    1.5605   -0.6675 O   0  0  0  0  0  0  0  0  0  0  0  0
    3.2307    0.5813   -0.0224 C   0  0  0  0  0  0  0  0  0  0  0  0
    3.7938   -0.5963    0.5022 C   0  0  0  0  0  0  0  0  0  0  0  0
    2.9827   -1.5452    1.1286 C   0  0  0  0  0  0  0  0  0  0  0  0
    1.6056   -1.3327    1.2454 C   0  0  0  0  0  0  0  0  0  0  0  0
    0.7999   -2.3264    1.8757 N   0  0  0  0  0  1  0  0  0  0  0  0
    1.0303   -0.1497    0.7389 C   0  0  0  0  0  0  0  0  0  0  0  0
   -0.4567    0.0952    0.8194 C   0  0  0  0  0  0  0  0  0  0  0  0
   -1.1724   -0.5322   -0.3806 C   0  0  0  0  0  0  0  0  0  0  0  0
   -2.6555   -0.2902   -0.2979 C   0  0  0  0  0  0  0  0  0  0  0  0
   -3.4835   -1.1932    0.3897 C   0  0  0  0  0  0  0  0  0  0  0  0
   -4.8567   -0.9500    0.4940 C   0  0  0  0  0  0  0  0  0  0  0  0
   -5.4101    0.1989   -0.0779 C   0  0  0  0  0  0  0  0  0  0  0  0
   -4.5906    1.1090   -0.7514 C   0  0  0  0  0  0  0  0  0  0  0  0
   -3.2169    0.8697   -0.8580 C   0  0  0  0  0  0  0  0  0  0  0  0
    1.8521    0.7922    0.0966 C   0  0  0  0  0  0  0  0  0  0  0  0
    5.6588    0.5857   -1.4731 H   0  0  0  0  0  0  0  0  0  0  0  0
    5.7556    2.3849   -1.3964 H   0  0  0  0  0  0  0  0  0  0  0  0
    5.9266    1.4249    0.1207 H   0  0  0  0  0  0  0  0  0  0  0  0
    4.8550   -0.7902    0.4268 H   0  0  0  0  0  0  0  0  0  0  0  0
    3.4271   -2.4513    1.5213 H   0  0  0  0  0  0  0  0  0  0  0  0
   -0.6585    1.1893    0.8416 H   0  0  0  0  0  0  0  0  0  0  0  0
   -0.8629   -0.3252    1.7653 H   0  0  0  0  0  0  0  0  0  0  0  0
   -0.9719   -1.6260   -0.4091 H   0  0  0  0  0  0  0  0  0  0  0  0
   -0.7721   -0.0987   -1.3238 H   0  0  0  0  0  0  0  0  0  0  0  0
   -3.0655   -2.0824    0.8454 H   0  0  0  0  0  0  0  0  0  0  0  0
   -5.4913   -1.6507    1.0211 H   0  0  0  0  0  0  0  0  0  0  0  0
   -6.4729    0.3863    0.0048 H   0  0  0  0  0  0  0  0  0  0  0  0
   -5.0192    2.0018   -1.1880 H   0  0  0  0  0  0  0  0  0  0  0  0
   -2.5913    1.5873   -1.3743 H   0  0  0  0  0  0  0  0  0  0  0  0
    1.4199    1.6959   -0.3163 H   0  0  0  0  0  0  0  0  0  0  0  0
  1  2  1  0
  2  3  1  0
  3  4  1  0
  4  5  2  0
  5  6  1  0
  6  7  1  0
  6  8  2  0
  8  9  1  0
  9 10  1  0
 10 11  1  0
 11 12  2  0
 12 13  1  0
 13 14  2  0
 14 15  1  0
 15 16  2  0
  8 17  1  0
 17  3  2  0
 16 11  1  0
  1 18  1  0
  1 19  1  0
  1 20  1  0
  4 21  1  0
  5 22  1  0
  9 23  1  0
  9 24  1  0
 10 25  1  0
 10 26  1  0
 12 27  1  0
 13 28  1  0
 14 29  1  0
 15 30  1  0
 16 31  1  0
 17 32  1  0
M  RAD  1   7   3
M  END
$$$$
