
     RDKit          3D

 32 33  0  0  0  0  0  0  0  0999 V2000
    3.2119    2.5293   -1.4172 C   0  0  0  0  0  0  0  0  0  0  0  0
    2.0952    1.6530   -1.5283 O   0  0  0  0  0  0  0  0  0  0  0  0
    1.9683    0.4400   -0.8352 C   0  0  0  0  0  0  0  0  0  0  0  0
    2.9574   -0.0322    0.0464 C   0  0  0  0  0  0  0  0  0  0  0  0
    2.7791   -1.2421    0.7206 C   0  0  0  0  0  0  0  0  0  0  0  0
    1.6177   -1.9962    0.5263 C   0  0  0  0  0  0  0  0  0  0  0  0
    1.4559   -3.2205    1.2393 N   0  0  0  0  0  1  0  0  0  0  0  0
    0.6229   -1.5405   -0.3620 C   0  0  0  0  0  0  0  0  0  0  0  0
   -0.6667   -2.3056   -0.5546 C   0  0  0  0  0  0  0  0  0  0  0  0
   -1.6776   -2.0122    0.5633 C   0  0  0  0  0  0  0  0  0  0  0  0
   -2.1055   -0.5665    0.5653 C   0  0  0  0  0  0  0  0  0  0  0  0
   -3.0795   -0.1159   -0.3412 C   0  0  0  0  0  0  0  0  0  0  0  0
   -3.4412    1.2345   -0.3724 C   0  0  0  0  0  0  0  0  0  0  0  0
   -2.8289    2.1441    0.4942 C   0  0  0  0  0  0  0  0  0  0  0  0
   -1.8527    1.7052    1.3928 C   0  0  0  0  0  0  0  0  0  0  0  0
   -1.4893    0.3557    1.4287 C   0  0  0  0  0  0  0  0  0  0  0  0
    0.8095   -0.3191   -1.0323 C   0  0  0  0  0  0  0  0  0  0  0  0
    3.0474    3.4106   -2.0704 H   0  0  0  0  0  0  0  0  0  0  0  0
    4.1378    2.0114   -1.7453 H   0  0  0  0  0  0  0  0  0  0  0  0
    3.3200    2.8789   -0.3687 H   0  0  0  0  0  0  0  0  0  0  0  0
    3.8649    0.5295    0.2207 H   0  0  0  0  0  0  0  0  0  0  0  0
    3.5455   -1.5921    1.4010 H   0  0  0  0  0  0  0  0  0  0  0  0
   -0.4548   -3.3963   -0.5735 H   0  0  0  0  0  0  0  0  0  0  0  0
   -1.1202   -2.0600   -1.5403 H   0  0  0  0  0  0  0  0  0  0  0  0
   -2.5708   -2.6577    0.4168 H   0  0  0  0  0  0  0  0  0  0  0  0
   -1.2422   -2.2896    1.5482 H   0  0  0  0  0  0  0  0  0  0  0  0
   -3.5525   -0.8089   -1.0259 H   0  0  0  0  0  0  0  0  0  0  0  0
   -4.1930    1.5766   -1.0718 H   0  0  0  0  0  0  0  0  0  0  0  0
   -3.1079    3.1895    0.4666 H   0  0  0  0  0  0  0  0  0  0  0  0
   -1.3740    2.4117    2.0585 H   0  0  0  0  0  0  0  0  0  0  0  0
   -0.7211    0.0316    2.1199 H   0  0  0  0  0  0  0  0  0  0  0  0
    0.0442    0.0537   -1.7027 H   0  0  0  0  0  0  0  0  0  0  0  0
  1  2  1  0
  2  3  1  0
  3  4  1  0
  4  5  2  0
  5  6  1  0
  6  7  1  0
  6  8  2  0
  8  9  1  0
  9 10  1  0
 10 11  1  0
 11 12  2  0
 12 13  1  0
 13 14  2  0
 14 15  1  0
 15 16  2  0
  8 17  1  0
 17  3  2  0
 16 11  1  0
  1 18  1  0
  1 19  1  0
  1 20  1  0
  4 21  1  0
  5 22  1  0
  9 23  1  0
  9 24  1  0
 10 25  1  0
 10 26  1  0
 12 27  1  0
 13 28  1  0
 14 29  1  0
 15 30  1  0
 16 31  1  0
 17 32  1  0
M  RAD  1   7   3
M  END
$$$$
