
     RDKit          3D

 32 33  0  0  0  0  0  0  0  0999 V2000
    5.4289    1.4438    0.6436 C   0  0  0  0  0  0  0  0  0  0  0  0
    4.0250    1.2940    0.8286 O   0  0  0  0  0  0  0  0  0  0  0  0
    3.2412    0.3213    0.1902 C   0  0  0  0  0  0  0  0  0  0  0  0
    3.7845   -0.6132   -0.7102 C   0  0  0  0  0  0  0  0  0  0  0  0
    2.9603   -1.5571   -1.3267 C   0  0  0  0  0  0  0  0  0  0  0  0
    1.5896   -1.5869   -1.0519 C   0  0  0  0  0  0  0  0  0  0  0  0
    0.7698   -2.5516   -1.7084 N   0  0  0  0  0  1  0  0  0  0  0  0
    1.0343   -0.6671   -0.1392 C   0  0  0  0  0  0  0  0  0  0  0  0
   -0.4459   -0.6512    0.1543 C   0  0  0  0  0  0  0  0  0  0  0  0
   -1.1890    0.2153   -0.8670 C   0  0  0  0  0  0  0  0  0  0  0  0
   -2.6653    0.2283   -0.5753 C   0  0  0  0  0  0  0  0  0  0  0  0
   -3.5050   -0.7546   -1.1256 C   0  0  0  0  0  0  0  0  0  0  0  0
   -4.8712   -0.7608   -0.8273 C   0  0  0  0  0  0  0  0  0  0  0  0
   -5.4059    0.2063    0.0284 C   0  0  0  0  0  0  0  0  0  0  0  0
   -4.5744    1.1789    0.5908 C   0  0  0  0  0  0  0  0  0  0  0  0
   -3.2076    1.1887    0.2951 C   0  0  0  0  0  0  0  0  0  0  0  0
    1.8690    0.2889    0.4644 C   0  0  0  0  0  0  0  0  0  0  0  0
    5.7888    2.2873    1.2677 H   0  0  0  0  0  0  0  0  0  0  0  0
    5.6519    1.6686   -0.4208 H   0  0  0  0  0  0  0  0  0  0  0  0
    5.9563    0.5185    0.9579 H   0  0  0  0  0  0  0  0  0  0  0  0
    4.8403   -0.6153   -0.9441 H   0  0  0  0  0  0  0  0  0  0  0  0
    3.3893   -2.2659   -2.0240 H   0  0  0  0  0  0  0  0  0  0  0  0
   -0.8502   -1.6869    0.1381 H   0  0  0  0  0  0  0  0  0  0  0  0
   -0.6236   -0.2530    1.1780 H   0  0  0  0  0  0  0  0  0  0  0  0
   -0.7902    1.2535   -0.8377 H   0  0  0  0  0  0  0  0  0  0  0  0
   -1.0127   -0.1770   -1.8929 H   0  0  0  0  0  0  0  0  0  0  0  0
   -3.1013   -1.5152   -1.7826 H   0  0  0  0  0  0  0  0  0  0  0  0
   -5.5149   -1.5175   -1.2568 H   0  0  0  0  0  0  0  0  0  0  0  0
   -6.4633    0.1993    0.2593 H   0  0  0  0  0  0  0  0  0  0  0  0
   -4.9883    1.9232    1.2586 H   0  0  0  0  0  0  0  0  0  0  0  0
   -2.5723    1.9419    0.7447 H   0  0  0  0  0  0  0  0  0  0  0  0
    1.4519    1.0154    1.1515 H   0  0  0  0  0  0  0  0  0  0  0  0
  1  2  1  0
  2  3  1  0
  3  4  1  0
  4  5  2  0
  5  6  1  0
  6  7  1  0
  6  8  2  0
  8  9  1  0
  9 10  1  0
 10 11  1  0
 11 12  2  0
 12 13  1  0
 13 14  2  0
 14 15  1  0
 15 16  2  0
  8 17  1  0
 17  3  2  0
 16 11  1  0
  1 18  1  0
  1 19  1  0
  1 20  1  0
  4 21  1  0
  5 22  1  0
  9 23  1  0
  9 24  1  0
 10 25  1  0
 10 26  1  0
 12 27  1  0
 13 28  1  0
 14 29  1  0
 15 30  1  0
 16 31  1  0
 17 32  1  0
M  RAD  1   7   3
M  END
$$$$
