
     RDKit          3D

 32 33  0  0  0  0  0  0  0  0999 V2000
   -5.5184   -1.3319   -0.1213 C   0  0  0  0  0  0  0  0  0  0  0  0
   -4.1062   -1.3796   -0.2969 O   0  0  0  0  0  0  0  0  0  0  0  0
   -3.2539   -0.2729   -0.1664 C   0  0  0  0  0  0  0  0  0  0  0  0
   -3.7292    1.0109    0.1576 C   0  0  0  0  0  0  0  0  0  0  0  0
   -2.8387    2.0792    0.2842 C   0  0  0  0  0  0  0  0  0  0  0  0
   -1.4682    1.8857    0.0855 C   0  0  0  0  0  0  0  0  0  0  0  0
   -0.5807    2.9916    0.2373 N   0  0  0  0  0  1  0  0  0  0  0  0
   -0.9798    0.6080   -0.2556 C   0  0  0  0  0  0  0  0  0  0  0  0
    0.4966    0.3584   -0.4445 C   0  0  0  0  0  0  0  0  0  0  0  0
    1.1654    0.0391    0.8959 C   0  0  0  0  0  0  0  0  0  0  0  0
    2.6381   -0.2067    0.7071 C   0  0  0  0  0  0  0  0  0  0  0  0
    3.5472    0.8633    0.7577 C   0  0  0  0  0  0  0  0  0  0  0  0
    4.9116    0.6383    0.5494 C   0  0  0  0  0  0  0  0  0  0  0  0
    5.3757   -0.6522    0.2799 C   0  0  0  0  0  0  0  0  0  0  0  0
    4.4756   -1.7194    0.2142 C   0  0  0  0  0  0  0  0  0  0  0  0
    3.1104   -1.4988    0.4218 C   0  0  0  0  0  0  0  0  0  0  0  0
   -1.8817   -0.4640   -0.3657 C   0  0  0  0  0  0  0  0  0  0  0  0
   -5.9383   -2.3457   -0.2833 H   0  0  0  0  0  0  0  0  0  0  0  0
   -5.9718   -0.6372   -0.8596 H   0  0  0  0  0  0  0  0  0  0  0  0
   -5.7640   -1.0062    0.9115 H   0  0  0  0  0  0  0  0  0  0  0  0
   -4.7830    1.1926    0.3183 H   0  0  0  0  0  0  0  0  0  0  0  0
   -3.2162    3.0610    0.5419 H   0  0  0  0  0  0  0  0  0  0  0  0
    0.9788    1.2475   -0.9064 H   0  0  0  0  0  0  0  0  0  0  0  0
    0.6490   -0.4909   -1.1471 H   0  0  0  0  0  0  0  0  0  0  0  0
    0.6886   -0.8590    1.3475 H   0  0  0  0  0  0  0  0  0  0  0  0
    1.0137    0.8841    1.6033 H   0  0  0  0  0  0  0  0  0  0  0  0
    3.1990    1.8695    0.9562 H   0  0  0  0  0  0  0  0  0  0  0  0
    5.6087    1.4651    0.5933 H   0  0  0  0  0  0  0  0  0  0  0  0
    6.4319   -0.8244    0.1176 H   0  0  0  0  0  0  0  0  0  0  0  0
    4.8354   -2.7172   -0.0012 H   0  0  0  0  0  0  0  0  0  0  0  0
    2.4221   -2.3326    0.3589 H   0  0  0  0  0  0  0  0  0  0  0  0
   -1.5175   -1.4557   -0.6064 H   0  0  0  0  0  0  0  0  0  0  0  0
  1  2  1  0
  2  3  1  0
  3  4  1  0
  4  5  2  0
  5  6  1  0
  6  7  1  0
  6  8  2  0
  8  9  1  0
  9 10  1  0
 10 11  1  0
 11 12  2  0
 12 13  1  0
 13 14  2  0
 14 15  1  0
 15 16  2  0
  8 17  1  0
 17  3  2  0
 16 11  1  0
  1 18  1  0
  1 19  1  0
  1 20  1  0
  4 21  1  0
  5 22  1  0
  9 23  1  0
  9 24  1  0
 10 25  1  0
 10 26  1  0
 12 27  1  0
 13 28  1  0
 14 29  1  0
 15 30  1  0
 16 31  1  0
 17 32  1  0
M  RAD  1   7   3
M  END
$$$$
