
     RDKit          3D

 32 33  0  0  0  0  0  0  0  0999 V2000
    5.5670    0.5419   -0.8928 C   0  0  0  0  0  0  0  0  0  0  0  0
    4.1797    0.8418   -0.7790 O   0  0  0  0  0  0  0  0  0  0  0  0
    3.2800    0.1337    0.0315 C   0  0  0  0  0  0  0  0  0  0  0  0
    3.6770   -0.9607    0.8212 C   0  0  0  0  0  0  0  0  0  0  0  0
    2.7410   -1.6385    1.6054 C   0  0  0  0  0  0  0  0  0  0  0  0
    1.4025   -1.2339    1.6180 C   0  0  0  0  0  0  0  0  0  0  0  0
    0.4658   -1.9549    2.4158 N   0  0  0  0  0  1  0  0  0  0  0  0
    0.9938   -0.1287    0.8443 C   0  0  0  0  0  0  0  0  0  0  0  0
   -0.4488    0.3131    0.8100 C   0  0  0  0  0  0  0  0  0  0  0  0
   -1.2269   -0.4679   -0.2532 C   0  0  0  0  0  0  0  0  0  0  0  0
   -2.6660   -0.0287   -0.2848 C   0  0  0  0  0  0  0  0  0  0  0  0
   -3.6139   -0.6465    0.5483 C   0  0  0  0  0  0  0  0  0  0  0  0
   -4.9441   -0.2153    0.5419 C   0  0  0  0  0  0  0  0  0  0  0  0
   -5.3346    0.8400   -0.2873 C   0  0  0  0  0  0  0  0  0  0  0  0
   -4.3944    1.4687   -1.1084 C   0  0  0  0  0  0  0  0  0  0  0  0
   -3.0631    1.0406   -1.1051 C   0  0  0  0  0  0  0  0  0  0  0  0
    1.9399    0.5374    0.0465 C   0  0  0  0  0  0  0  0  0  0  0  0
    5.7041   -0.4872   -1.2869 H   0  0  0  0  0  0  0  0  0  0  0  0
    6.0360    1.2579   -1.5983 H   0  0  0  0  0  0  0  0  0  0  0  0
    6.0616    0.6418    0.0965 H   0  0  0  0  0  0  0  0  0  0  0  0
    4.7043   -1.2984    0.8323 H   0  0  0  0  0  0  0  0  0  0  0  0
    3.0576   -2.4845    2.2027 H   0  0  0  0  0  0  0  0  0  0  0  0
   -0.5051    1.4017    0.5863 H   0  0  0  0  0  0  0  0  0  0  0  0
   -0.9177    0.1658    1.8074 H   0  0  0  0  0  0  0  0  0  0  0  0
   -0.7621   -0.3067   -1.2511 H   0  0  0  0  0  0  0  0  0  0  0  0
   -1.1719   -1.5575   -0.0358 H   0  0  0  0  0  0  0  0  0  0  0  0
   -3.3220   -1.4590    1.2023 H   0  0  0  0  0  0  0  0  0  0  0  0
   -5.6716   -0.6969    1.1824 H   0  0  0  0  0  0  0  0  0  0  0  0
   -6.3643    1.1734   -0.2900 H   0  0  0  0  0  0  0  0  0  0  0  0
   -4.6965    2.2902   -1.7451 H   0  0  0  0  0  0  0  0  0  0  0  0
   -2.3424    1.5423   -1.7391 H   0  0  0  0  0  0  0  0  0  0  0  0
    1.6352    1.3751   -0.5694 H   0  0  0  0  0  0  0  0  0  0  0  0
  1  2  1  0
  2  3  1  0
  3  4  1  0
  4  5  2  0
  5  6  1  0
  6  7  1  0
  6  8  2  0
  8  9  1  0
  9 10  1  0
 10 11  1  0
 11 12  2  0
 12 13  1  0
 13 14  2  0
 14 15  1  0
 15 16  2  0
  8 17  1  0
 17  3  2  0
 16 11  1  0
  1 18  1  0
  1 19  1  0
  1 20  1  0
  4 21  1  0
  5 22  1  0
  9 23  1  0
  9 24  1  0
 10 25  1  0
 10 26  1  0
 12 27  1  0
 13 28  1  0
 14 29  1  0
 15 30  1  0
 16 31  1  0
 17 32  1  0
M  RAD  1   7   3
M  END
$$$$
