
     RDKit          3D

 32 33  0  0  0  0  0  0  0  0999 V2000
    3.4520    2.6158   -0.3245 C   0  0  0  0  0  0  0  0  0  0  0  0
    2.3966    1.9160    0.3263 O   0  0  0  0  0  0  0  0  0  0  0  0
    2.1031    0.5592    0.1240 C   0  0  0  0  0  0  0  0  0  0  0  0
    2.8452   -0.2503   -0.7549 C   0  0  0  0  0  0  0  0  0  0  0  0
    2.5064   -1.5939   -0.9291 C   0  0  0  0  0  0  0  0  0  0  0  0
    1.4281   -2.1480   -0.2324 C   0  0  0  0  0  0  0  0  0  0  0  0
    1.0959   -3.5189   -0.4411 N   0  0  0  0  0  1  0  0  0  0  0  0
    0.6821   -1.3514    0.6594 C   0  0  0  0  0  0  0  0  0  0  0  0
   -0.5209   -1.9060    1.3879 C   0  0  0  0  0  0  0  0  0  0  0  0
   -1.7753   -1.9058    0.5024 C   0  0  0  0  0  0  0  0  0  0  0  0
   -2.1902   -0.5076    0.1204 C   0  0  0  0  0  0  0  0  0  0  0  0
   -2.9116    0.2883    1.0256 C   0  0  0  0  0  0  0  0  0  0  0  0
   -3.2543    1.6018    0.6903 C   0  0  0  0  0  0  0  0  0  0  0  0
   -2.8733    2.1316   -0.5456 C   0  0  0  0  0  0  0  0  0  0  0  0
   -2.1478    1.3491   -1.4481 C   0  0  0  0  0  0  0  0  0  0  0  0
   -1.8047    0.0346   -1.1177 C   0  0  0  0  0  0  0  0  0  0  0  0
    1.0280    0.0011    0.8243 C   0  0  0  0  0  0  0  0  0  0  0  0
    4.4300    2.1570   -0.0672 H   0  0  0  0  0  0  0  0  0  0  0  0
    3.2994    2.5999   -1.4243 H   0  0  0  0  0  0  0  0  0  0  0  0
    3.4533    3.6706    0.0188 H   0  0  0  0  0  0  0  0  0  0  0  0
    3.6823    0.1495   -1.3107 H   0  0  0  0  0  0  0  0  0  0  0  0
    3.0821   -2.2052   -1.6129 H   0  0  0  0  0  0  0  0  0  0  0  0
   -0.3111   -2.9463    1.7177 H   0  0  0  0  0  0  0  0  0  0  0  0
   -0.7184   -1.3206    2.3130 H   0  0  0  0  0  0  0  0  0  0  0  0
   -2.6054   -2.3948    1.0573 H   0  0  0  0  0  0  0  0  0  0  0  0
   -1.5952   -2.5196   -0.4072 H   0  0  0  0  0  0  0  0  0  0  0  0
   -3.2021   -0.1070    1.9912 H   0  0  0  0  0  0  0  0  0  0  0  0
   -3.8111    2.2108    1.3907 H   0  0  0  0  0  0  0  0  0  0  0  0
   -3.1367    3.1495   -0.8023 H   0  0  0  0  0  0  0  0  0  0  0  0
   -1.8471    1.7626   -2.4020 H   0  0  0  0  0  0  0  0  0  0  0  0
   -1.2300   -0.5560   -1.8204 H   0  0  0  0  0  0  0  0  0  0  0  0
    0.4508    0.6306    1.4910 H   0  0  0  0  0  0  0  0  0  0  0  0
  1  2  1  0
  2  3  1  0
  3  4  1  0
  4  5  2  0
  5  6  1  0
  6  7  1  0
  6  8  2  0
  8  9  1  0
  9 10  1  0
 10 11  1  0
 11 12  2  0
 12 13  1  0
 13 14  2  0
 14 15  1  0
 15 16  2  0
  8 17  1  0
 17  3  2  0
 16 11  1  0
  1 18  1  0
  1 19  1  0
  1 20  1  0
  4 21  1  0
  5 22  1  0
  9 23  1  0
  9 24  1  0
 10 25  1  0
 10 26  1  0
 12 27  1  0
 13 28  1  0
 14 29  1  0
 15 30  1  0
 16 31  1  0
 17 32  1  0
M  RAD  1   7   3
M  END
$$$$
