
     RDKit          3D

 32 33  0  0  0  0  0  0  0  0999 V2000
    2.2395    2.1571   -1.5174 C   0  0  0  0  0  0  0  0  0  0  0  0
    2.6700    0.8028   -1.6096 O   0  0  0  0  0  0  0  0  0  0  0  0
    2.2346   -0.2256   -0.7606 C   0  0  0  0  0  0  0  0  0  0  0  0
    2.6956   -1.5239   -0.9986 C   0  0  0  0  0  0  0  0  0  0  0  0
    2.2697   -2.5857   -0.1981 C   0  0  0  0  0  0  0  0  0  0  0  0
    1.3767   -2.3629    0.8545 C   0  0  0  0  0  0  0  0  0  0  0  0
    0.9378   -3.4691    1.6401 N   0  0  0  0  0  1  0  0  0  0  0  0
    0.9163   -1.0580    1.1226 C   0  0  0  0  0  0  0  0  0  0  0  0
   -0.0940   -0.7910    2.2154 C   0  0  0  0  0  0  0  0  0  0  0  0
   -1.5323   -1.0250    1.7305 C   0  0  0  0  0  0  0  0  0  0  0  0
   -1.9134   -0.0665    0.6304 C   0  0  0  0  0  0  0  0  0  0  0  0
   -1.8330   -0.4619   -0.7161 C   0  0  0  0  0  0  0  0  0  0  0  0
   -2.1224    0.4494   -1.7361 C   0  0  0  0  0  0  0  0  0  0  0  0
   -2.4913    1.7598   -1.4208 C   0  0  0  0  0  0  0  0  0  0  0  0
   -2.5698    2.1618   -0.0846 C   0  0  0  0  0  0  0  0  0  0  0  0
   -2.2790    1.2544    0.9388 C   0  0  0  0  0  0  0  0  0  0  0  0
    1.3494    0.0040    0.3092 C   0  0  0  0  0  0  0  0  0  0  0  0
    2.5324    2.5851   -0.5355 H   0  0  0  0  0  0  0  0  0  0  0  0
    2.7252    2.7475   -2.3211 H   0  0  0  0  0  0  0  0  0  0  0  0
    1.1378    2.2171   -1.6477 H   0  0  0  0  0  0  0  0  0  0  0  0
    3.3799   -1.7125   -1.8162 H   0  0  0  0  0  0  0  0  0  0  0  0
    2.6284   -3.5866   -0.4035 H   0  0  0  0  0  0  0  0  0  0  0  0
    0.1070   -1.4527    3.0852 H   0  0  0  0  0  0  0  0  0  0  0  0
    0.0084    0.2516    2.5895 H   0  0  0  0  0  0  0  0  0  0  0  0
   -2.2263   -0.8908    2.5885 H   0  0  0  0  0  0  0  0  0  0  0  0
   -1.6469   -2.0768    1.3876 H   0  0  0  0  0  0  0  0  0  0  0  0
   -1.5312   -1.4692   -0.9751 H   0  0  0  0  0  0  0  0  0  0  0  0
   -2.0547    0.1412   -2.7714 H   0  0  0  0  0  0  0  0  0  0  0  0
   -2.7124    2.4647   -2.2117 H   0  0  0  0  0  0  0  0  0  0  0  0
   -2.8500    3.1787    0.1582 H   0  0  0  0  0  0  0  0  0  0  0  0
   -2.3287    1.5820    1.9698 H   0  0  0  0  0  0  0  0  0  0  0  0
    0.9768    1.0010    0.5040 H   0  0  0  0  0  0  0  0  0  0  0  0
  1  2  1  0
  2  3  1  0
  3  4  1  0
  4  5  2  0
  5  6  1  0
  6  7  1  0
  6  8  2  0
  8  9  1  0
  9 10  1  0
 10 11  1  0
 11 12  2  0
 12 13  1  0
 13 14  2  0
 14 15  1  0
 15 16  2  0
  8 17  1  0
 17  3  2  0
 16 11  1  0
  1 18  1  0
  1 19  1  0
  1 20  1  0
  4 21  1  0
  5 22  1  0
  9 23  1  0
  9 24  1  0
 10 25  1  0
 10 26  1  0
 12 27  1  0
 13 28  1  0
 14 29  1  0
 15 30  1  0
 16 31  1  0
 17 32  1  0
M  RAD  1   7   3
M  END
$$$$
