
     RDKit          3D

 32 33  0  0  0  0  0  0  0  0999 V2000
    5.3677    1.7810   -0.5215 C   0  0  0  0  0  0  0  0  0  0  0  0
    3.9692    1.7729   -0.2537 O   0  0  0  0  0  0  0  0  0  0  0  0
    3.2250    0.6197    0.0370 C   0  0  0  0  0  0  0  0  0  0  0  0
    3.8070   -0.6599    0.0901 C   0  0  0  0  0  0  0  0  0  0  0  0
    3.0212   -1.7786    0.3757 C   0  0  0  0  0  0  0  0  0  0  0  0
    1.6510   -1.6382    0.6166 C   0  0  0  0  0  0  0  0  0  0  0  0
    0.8705   -2.8001    0.8898 N   0  0  0  0  0  1  0  0  0  0  0  0
    1.0575   -0.3600    0.5828 C   0  0  0  0  0  0  0  0  0  0  0  0
   -0.4240   -0.1778    0.8058 C   0  0  0  0  0  0  0  0  0  0  0  0
   -1.1925   -0.3525   -0.5075 C   0  0  0  0  0  0  0  0  0  0  0  0
   -2.6699   -0.1738   -0.2837 C   0  0  0  0  0  0  0  0  0  0  0  0
   -3.4700   -1.2712    0.0762 C   0  0  0  0  0  0  0  0  0  0  0  0
   -4.8367   -1.0976    0.3160 C   0  0  0  0  0  0  0  0  0  0  0  0
   -5.4112    0.1720    0.2080 C   0  0  0  0  0  0  0  0  0  0  0  0
   -4.6190    1.2709   -0.1359 C   0  0  0  0  0  0  0  0  0  0  0  0
   -3.2519    1.1017   -0.3765 C   0  0  0  0  0  0  0  0  0  0  0  0
    1.8534    0.7579    0.2795 C   0  0  0  0  0  0  0  0  0  0  0  0
    5.6931    2.8230   -0.7179 H   0  0  0  0  0  0  0  0  0  0  0  0
    5.9268    1.3932    0.3561 H   0  0  0  0  0  0  0  0  0  0  0  0
    5.5882    1.1645   -1.4185 H   0  0  0  0  0  0  0  0  0  0  0  0
    4.8634   -0.8014   -0.0925 H   0  0  0  0  0  0  0  0  0  0  0  0
    3.4796   -2.7593    0.4058 H   0  0  0  0  0  0  0  0  0  0  0  0
   -0.6217    0.8360    1.2196 H   0  0  0  0  0  0  0  0  0  0  0  0
   -0.7900   -0.9090    1.5593 H   0  0  0  0  0  0  0  0  0  0  0  0
   -0.8321    0.3898   -1.2537 H   0  0  0  0  0  0  0  0  0  0  0  0
   -0.9963   -1.3639   -0.9271 H   0  0  0  0  0  0  0  0  0  0  0  0
   -3.0351   -2.2585    0.1724 H   0  0  0  0  0  0  0  0  0  0  0  0
   -5.4498   -1.9467    0.5890 H   0  0  0  0  0  0  0  0  0  0  0  0
   -6.4689    0.3049    0.3953 H   0  0  0  0  0  0  0  0  0  0  0  0
   -5.0637    2.2547   -0.2126 H   0  0  0  0  0  0  0  0  0  0  0  0
   -2.6472    1.9628   -0.6330 H   0  0  0  0  0  0  0  0  0  0  0  0
    1.4063    1.7435    0.2291 H   0  0  0  0  0  0  0  0  0  0  0  0
  1  2  1  0
  2  3  1  0
  3  4  1  0
  4  5  2  0
  5  6  1  0
  6  7  1  0
  6  8  2  0
  8  9  1  0
  9 10  1  0
 10 11  1  0
 11 12  2  0
 12 13  1  0
 13 14  2  0
 14 15  1  0
 15 16  2  0
  8 17  1  0
 17  3  2  0
 16 11  1  0
  1 18  1  0
  1 19  1  0
  1 20  1  0
  4 21  1  0
  5 22  1  0
  9 23  1  0
  9 24  1  0
 10 25  1  0
 10 26  1  0
 12 27  1  0
 13 28  1  0
 14 29  1  0
 15 30  1  0
 16 31  1  0
 17 32  1  0
M  RAD  1   7   3
M  END
$$$$
