
     RDKit          3D

 32 33  0  0  0  0  0  0  0  0999 V2000
   -5.5125   -1.2292   -0.8492 C   0  0  0  0  0  0  0  0  0  0  0  0
   -4.1074   -1.1684   -1.0714 O   0  0  0  0  0  0  0  0  0  0  0  0
   -3.2618   -0.1873   -0.5323 C   0  0  0  0  0  0  0  0  0  0  0  0
   -3.7374    0.8464    0.2949 C   0  0  0  0  0  0  0  0  0  0  0  0
   -2.8535    1.7949    0.8139 C   0  0  0  0  0  0  0  0  0  0  0  0
   -1.4894    1.7305    0.5130 C   0  0  0  0  0  0  0  0  0  0  0  0
   -0.6079    2.7032    1.0702 N   0  0  0  0  0  1  0  0  0  0  0  0
   -1.0014    0.7097   -0.3279 C   0  0  0  0  0  0  0  0  0  0  0  0
    0.4693    0.5925   -0.6456 C   0  0  0  0  0  0  0  0  0  0  0  0
    1.1907   -0.2221    0.4323 C   0  0  0  0  0  0  0  0  0  0  0  0
    2.6576   -0.3360    0.1163 C   0  0  0  0  0  0  0  0  0  0  0  0
    3.5574    0.6452    0.5652 C   0  0  0  0  0  0  0  0  0  0  0  0
    4.9153    0.5556    0.2429 C   0  0  0  0  0  0  0  0  0  0  0  0
    5.3817   -0.5067   -0.5365 C   0  0  0  0  0  0  0  0  0  0  0  0
    4.4903   -1.4790   -0.9985 C   0  0  0  0  0  0  0  0  0  0  0  0
    3.1317   -1.3932   -0.6785 C   0  0  0  0  0  0  0  0  0  0  0  0
   -1.8962   -0.2492   -0.8329 C   0  0  0  0  0  0  0  0  0  0  0  0
   -5.9280   -2.1023   -1.3927 H   0  0  0  0  0  0  0  0  0  0  0  0
   -5.7228   -1.3518    0.2343 H   0  0  0  0  0  0  0  0  0  0  0  0
   -5.9998   -0.3074   -1.2315 H   0  0  0  0  0  0  0  0  0  0  0  0
   -4.7863    0.9228    0.5468 H   0  0  0  0  0  0  0  0  0  0  0  0
   -3.2308    2.5811    1.4561 H   0  0  0  0  0  0  0  0  0  0  0  0
    0.6039    0.1009   -1.6347 H   0  0  0  0  0  0  0  0  0  0  0  0
    0.9251    1.6036   -0.7251 H   0  0  0  0  0  0  0  0  0  0  0  0
    1.0572    0.2637    1.4241 H   0  0  0  0  0  0  0  0  0  0  0  0
    0.7399   -1.2371    0.4988 H   0  0  0  0  0  0  0  0  0  0  0  0
    3.2070    1.4784    1.1619 H   0  0  0  0  0  0  0  0  0  0  0  0
    5.6053    1.3117    0.5945 H   0  0  0  0  0  0  0  0  0  0  0  0
    6.4327   -0.5738   -0.7861 H   0  0  0  0  0  0  0  0  0  0  0  0
    4.8516   -2.2975   -1.6076 H   0  0  0  0  0  0  0  0  0  0  0  0
    2.4498   -2.1479   -1.0505 H   0  0  0  0  0  0  0  0  0  0  0  0
   -1.5314   -1.0515   -1.4630 H   0  0  0  0  0  0  0  0  0  0  0  0
  1  2  1  0
  2  3  1  0
  3  4  1  0
  4  5  2  0
  5  6  1  0
  6  7  1  0
  6  8  2  0
  8  9  1  0
  9 10  1  0
 10 11  1  0
 11 12  2  0
 12 13  1  0
 13 14  2  0
 14 15  1  0
 15 16  2  0
  8 17  1  0
 17  3  2  0
 16 11  1  0
  1 18  1  0
  1 19  1  0
  1 20  1  0
  4 21  1  0
  5 22  1  0
  9 23  1  0
  9 24  1  0
 10 25  1  0
 10 26  1  0
 12 27  1  0
 13 28  1  0
 14 29  1  0
 15 30  1  0
 16 31  1  0
 17 32  1  0
M  RAD  1   7   3
M  END
$$$$
