
     RDKit          3D

 32 33  0  0  0  0  0  0  0  0999 V2000
    3.1802    2.8891   -0.3143 C   0  0  0  0  0  0  0  0  0  0  0  0
    2.0506    2.1232   -0.7200 O   0  0  0  0  0  0  0  0  0  0  0  0
    1.9390    0.7334   -0.5654 C   0  0  0  0  0  0  0  0  0  0  0  0
    2.9581   -0.0456    0.0119 C   0  0  0  0  0  0  0  0  0  0  0  0
    2.7943   -1.4254    0.1528 C   0  0  0  0  0  0  0  0  0  0  0  0
    1.6180   -2.0462   -0.2785 C   0  0  0  0  0  0  0  0  0  0  0  0
    1.4723   -3.4545   -0.1085 N   0  0  0  0  0  1  0  0  0  0  0  0
    0.5928   -1.2797   -0.8682 C   0  0  0  0  0  0  0  0  0  0  0  0
   -0.7117   -1.9122   -1.2969 C   0  0  0  0  0  0  0  0  0  0  0  0
   -1.6731   -2.0970   -0.1140 C   0  0  0  0  0  0  0  0  0  0  0  0
   -2.0850   -0.7756    0.4838 C   0  0  0  0  0  0  0  0  0  0  0  0
   -3.0902   -0.0063   -0.1254 C   0  0  0  0  0  0  0  0  0  0  0  0
   -3.4384    1.2414    0.4011 C   0  0  0  0  0  0  0  0  0  0  0  0
   -2.7816    1.7324    1.5328 C   0  0  0  0  0  0  0  0  0  0  0  0
   -1.7744    0.9771    2.1394 C   0  0  0  0  0  0  0  0  0  0  0  0
   -1.4244   -0.2718    1.6175 C   0  0  0  0  0  0  0  0  0  0  0  0
    0.7651    0.1091   -1.0012 C   0  0  0  0  0  0  0  0  0  0  0  0
    3.3345    2.7908    0.7810 H   0  0  0  0  0  0  0  0  0  0  0  0
    4.0864    2.5516   -0.8603 H   0  0  0  0  0  0  0  0  0  0  0  0
    2.9987    3.9570   -0.5531 H   0  0  0  0  0  0  0  0  0  0  0  0
    3.8779    0.4053    0.3584 H   0  0  0  0  0  0  0  0  0  0  0  0
    3.5840   -2.0133    0.6039 H   0  0  0  0  0  0  0  0  0  0  0  0
   -1.2023   -1.2958   -2.0823 H   0  0  0  0  0  0  0  0  0  0  0  0
   -0.5124   -2.9028   -1.7592 H   0  0  0  0  0  0  0  0  0  0  0  0
   -1.2009   -2.7424    0.6588 H   0  0  0  0  0  0  0  0  0  0  0  0
   -2.5784   -2.6357   -0.4691 H   0  0  0  0  0  0  0  0  0  0  0  0
   -3.5980   -0.3707   -1.0098 H   0  0  0  0  0  0  0  0  0  0  0  0
   -4.2143    1.8299   -0.0713 H   0  0  0  0  0  0  0  0  0  0  0  0
   -3.0503    2.6997    1.9372 H   0  0  0  0  0  0  0  0  0  0  0  0
   -1.2615    1.3614    3.0116 H   0  0  0  0  0  0  0  0  0  0  0  0
   -0.6322   -0.8404    2.0889 H   0  0  0  0  0  0  0  0  0  0  0  0
   -0.0228    0.7139   -1.4340 H   0  0  0  0  0  0  0  0  0  0  0  0
  1  2  1  0
  2  3  1  0
  3  4  1  0
  4  5  2  0
  5  6  1  0
  6  7  1  0
  6  8  2  0
  8  9  1  0
  9 10  1  0
 10 11  1  0
 11 12  2  0
 12 13  1  0
 13 14  2  0
 14 15  1  0
 15 16  2  0
  8 17  1  0
 17  3  2  0
 16 11  1  0
  1 18  1  0
  1 19  1  0
  1 20  1  0
  4 21  1  0
  5 22  1  0
  9 23  1  0
  9 24  1  0
 10 25  1  0
 10 26  1  0
 12 27  1  0
 13 28  1  0
 14 29  1  0
 15 30  1  0
 16 31  1  0
 17 32  1  0
M  RAD  1   7   3
M  END
$$$$
