
     RDKit          3D

 32 33  0  0  0  0  0  0  0  0999 V2000
    5.4300    1.6626   -0.3884 C   0  0  0  0  0  0  0  0  0  0  0  0
    4.0139    1.6937   -0.2424 O   0  0  0  0  0  0  0  0  0  0  0  0
    3.2262    0.5790    0.0816 C   0  0  0  0  0  0  0  0  0  0  0  0
    3.7775   -0.6975    0.2951 C   0  0  0  0  0  0  0  0  0  0  0  0
    2.9495   -1.7779    0.6075 C   0  0  0  0  0  0  0  0  0  0  0  0
    1.5666   -1.6016    0.7165 C   0  0  0  0  0  0  0  0  0  0  0  0
    0.7442   -2.7262    1.0208 N   0  0  0  0  0  1  0  0  0  0  0  0
    1.0022   -0.3246    0.5213 C   0  0  0  0  0  0  0  0  0  0  0  0
   -0.4891   -0.1069    0.5992 C   0  0  0  0  0  0  0  0  0  0  0  0
   -1.1466   -0.3877   -0.7554 C   0  0  0  0  0  0  0  0  0  0  0  0
   -2.6341   -0.1730   -0.6761 C   0  0  0  0  0  0  0  0  0  0  0  0
   -3.1818    1.0958   -0.9292 C   0  0  0  0  0  0  0  0  0  0  0  0
   -4.5610    1.3011   -0.8228 C   0  0  0  0  0  0  0  0  0  0  0  0
   -5.4001    0.2459   -0.4542 C   0  0  0  0  0  0  0  0  0  0  0  0
   -4.8609   -1.0156   -0.1873 C   0  0  0  0  0  0  0  0  0  0  0  0
   -3.4823   -1.2253   -0.2925 C   0  0  0  0  0  0  0  0  0  0  0  0
    1.8418    0.7533    0.1921 C   0  0  0  0  0  0  0  0  0  0  0  0
    5.9052    1.3470    0.5645 H   0  0  0  0  0  0  0  0  0  0  0  0
    5.7904    2.6796   -0.6453 H   0  0  0  0  0  0  0  0  0  0  0  0
    5.7143    0.9673   -1.2063 H   0  0  0  0  0  0  0  0  0  0  0  0
    4.8428   -0.8664    0.2172 H   0  0  0  0  0  0  0  0  0  0  0  0
    3.3853   -2.7573    0.7617 H   0  0  0  0  0  0  0  0  0  0  0  0
   -0.7022    0.9415    0.9050 H   0  0  0  0  0  0  0  0  0  0  0  0
   -0.9314   -0.7649    1.3788 H   0  0  0  0  0  0  0  0  0  0  0  0
   -0.9347   -1.4342   -1.0673 H   0  0  0  0  0  0  0  0  0  0  0  0
   -0.7102    0.2821   -1.5293 H   0  0  0  0  0  0  0  0  0  0  0  0
   -2.5414    1.9240   -1.2065 H   0  0  0  0  0  0  0  0  0  0  0  0
   -4.9789    2.2793   -1.0228 H   0  0  0  0  0  0  0  0  0  0  0  0
   -6.4672    0.4069   -0.3711 H   0  0  0  0  0  0  0  0  0  0  0  0
   -5.5109   -1.8303    0.1047 H   0  0  0  0  0  0  0  0  0  0  0  0
   -3.0759   -2.2051   -0.0737 H   0  0  0  0  0  0  0  0  0  0  0  0
    1.4191    1.7356    0.0184 H   0  0  0  0  0  0  0  0  0  0  0  0
  1  2  1  0
  2  3  1  0
  3  4  1  0
  4  5  2  0
  5  6  1  0
  6  7  1  0
  6  8  2  0
  8  9  1  0
  9 10  1  0
 10 11  1  0
 11 12  2  0
 12 13  1  0
 13 14  2  0
 14 15  1  0
 15 16  2  0
  8 17  1  0
 17  3  2  0
 16 11  1  0
  1 18  1  0
  1 19  1  0
  1 20  1  0
  4 21  1  0
  5 22  1  0
  9 23  1  0
  9 24  1  0
 10 25  1  0
 10 26  1  0
 12 27  1  0
 13 28  1  0
 14 29  1  0
 15 30  1  0
 16 31  1  0
 17 32  1  0
M  RAD  1   7   3
M  END
$$$$
