
     RDKit          3D

 32 33  0  0  0  0  0  0  0  0999 V2000
    5.4686    1.2369    0.8621 C   0  0  0  0  0  0  0  0  0  0  0  0
    4.0907    1.3749    0.5309 O   0  0  0  0  0  0  0  0  0  0  0  0
    3.2621    0.3158    0.1309 C   0  0  0  0  0  0  0  0  0  0  0  0
    3.7292   -1.0065    0.0197 C   0  0  0  0  0  0  0  0  0  0  0  0
    2.8622   -2.0277   -0.3748 C   0  0  0  0  0  0  0  0  0  0  0  0
    1.5242   -1.7464   -0.6681 C   0  0  0  0  0  0  0  0  0  0  0  0
    0.6580   -2.8120   -1.0530 N   0  0  0  0  0  1  0  0  0  0  0  0
    1.0466   -0.4233   -0.5769 C   0  0  0  0  0  0  0  0  0  0  0  0
   -0.3992   -0.0913   -0.8546 C   0  0  0  0  0  0  0  0  0  0  0  0
   -1.2468   -0.2747    0.4079 C   0  0  0  0  0  0  0  0  0  0  0  0
   -2.6888    0.0535    0.1294 C   0  0  0  0  0  0  0  0  0  0  0  0
   -3.1583    1.3693    0.2795 C   0  0  0  0  0  0  0  0  0  0  0  0
   -4.4906    1.6788   -0.0115 C   0  0  0  0  0  0  0  0  0  0  0  0
   -5.3592    0.6812   -0.4629 C   0  0  0  0  0  0  0  0  0  0  0  0
   -4.8959   -0.6270   -0.6281 C   0  0  0  0  0  0  0  0  0  0  0  0
   -3.5643   -0.9409   -0.3383 C   0  0  0  0  0  0  0  0  0  0  0  0
    1.9227    0.5951   -0.1642 C   0  0  0  0  0  0  0  0  0  0  0  0
    6.0352    0.8540   -0.0129 H   0  0  0  0  0  0  0  0  0  0  0  0
    5.5867    0.5484    1.7254 H   0  0  0  0  0  0  0  0  0  0  0  0
    5.8755    2.2302    1.1417 H   0  0  0  0  0  0  0  0  0  0  0  0
    4.7579   -1.2563    0.2404 H   0  0  0  0  0  0  0  0  0  0  0  0
    3.2319   -3.0429   -0.4489 H   0  0  0  0  0  0  0  0  0  0  0  0
   -0.7900   -0.7375   -1.6707 H   0  0  0  0  0  0  0  0  0  0  0  0
   -0.4838    0.9601   -1.2089 H   0  0  0  0  0  0  0  0  0  0  0  0
   -1.1637   -1.3239    0.7683 H   0  0  0  0  0  0  0  0  0  0  0  0
   -0.8603    0.3837    1.2172 H   0  0  0  0  0  0  0  0  0  0  0  0
   -2.4929    2.1533    0.6195 H   0  0  0  0  0  0  0  0  0  0  0  0
   -4.8488    2.6930    0.1096 H   0  0  0  0  0  0  0  0  0  0  0  0
   -6.3897    0.9228   -0.6890 H   0  0  0  0  0  0  0  0  0  0  0  0
   -5.5677   -1.3973   -0.9842 H   0  0  0  0  0  0  0  0  0  0  0  0
   -3.2151   -1.9564   -0.4795 H   0  0  0  0  0  0  0  0  0  0  0  0
    1.5636    1.6129   -0.0691 H   0  0  0  0  0  0  0  0  0  0  0  0
  1  2  1  0
  2  3  1  0
  3  4  1  0
  4  5  2  0
  5  6  1  0
  6  7  1  0
  6  8  2  0
  8  9  1  0
  9 10  1  0
 10 11  1  0
 11 12  2  0
 12 13  1  0
 13 14  2  0
 14 15  1  0
 15 16  2  0
  8 17  1  0
 17  3  2  0
 16 11  1  0
  1 18  1  0
  1 19  1  0
  1 20  1  0
  4 21  1  0
  5 22  1  0
  9 23  1  0
  9 24  1  0
 10 25  1  0
 10 26  1  0
 12 27  1  0
 13 28  1  0
 14 29  1  0
 15 30  1  0
 16 31  1  0
 17 32  1  0
M  RAD  1   7   3
M  END
$$$$
