
     RDKit          3D

 32 33  0  0  0  0  0  0  0  0999 V2000
    5.5621    0.8967    0.5404 C   0  0  0  0  0  0  0  0  0  0  0  0
    4.1528    1.0879    0.4717 O   0  0  0  0  0  0  0  0  0  0  0  0
    3.2622    0.1996   -0.1496 C   0  0  0  0  0  0  0  0  0  0  0  0
    3.6918   -0.9859   -0.7733 C   0  0  0  0  0  0  0  0  0  0  0  0
    2.7644   -1.8420   -1.3711 C   0  0  0  0  0  0  0  0  0  0  0  0
    1.4019   -1.5279   -1.3608 C   0  0  0  0  0  0  0  0  0  0  0  0
    0.4761   -2.4288   -1.9650 N   0  0  0  0  0  1  0  0  0  0  0  0
    0.9590   -0.3351   -0.7538 C   0  0  0  0  0  0  0  0  0  0  0  0
   -0.5074    0.0172   -0.6966 C   0  0  0  0  0  0  0  0  0  0  0  0
   -1.1676   -0.6196    0.5300 C   0  0  0  0  0  0  0  0  0  0  0  0
   -2.6304   -0.2703    0.5847 C   0  0  0  0  0  0  0  0  0  0  0  0
   -3.5763   -1.0765   -0.0706 C   0  0  0  0  0  0  0  0  0  0  0  0
   -4.9316   -0.7326   -0.0466 C   0  0  0  0  0  0  0  0  0  0  0  0
   -5.3499    0.4213    0.6219 C   0  0  0  0  0  0  0  0  0  0  0  0
   -4.4131    1.2357    1.2641 C   0  0  0  0  0  0  0  0  0  0  0  0
   -3.0568    0.8956    1.2427 C   0  0  0  0  0  0  0  0  0  0  0  0
    1.8979    0.5124   -0.1414 C   0  0  0  0  0  0  0  0  0  0  0  0
    6.0173    1.7486    1.0857 H   0  0  0  0  0  0  0  0  0  0  0  0
    5.9925    0.8585   -0.4826 H   0  0  0  0  0  0  0  0  0  0  0  0
    5.7939   -0.0410    1.0883 H   0  0  0  0  0  0  0  0  0  0  0  0
    4.7383   -1.2573   -0.7972 H   0  0  0  0  0  0  0  0  0  0  0  0
    3.1070   -2.7556   -1.8410 H   0  0  0  0  0  0  0  0  0  0  0  0
   -0.6287    1.1224   -0.6516 H   0  0  0  0  0  0  0  0  0  0  0  0
   -1.0193   -0.3244   -1.6227 H   0  0  0  0  0  0  0  0  0  0  0  0
   -0.6608   -0.2644    1.4546 H   0  0  0  0  0  0  0  0  0  0  0  0
   -1.0470   -1.7248    0.4915 H   0  0  0  0  0  0  0  0  0  0  0  0
   -3.2638   -1.9681   -0.6001 H   0  0  0  0  0  0  0  0  0  0  0  0
   -5.6572   -1.3589   -0.5494 H   0  0  0  0  0  0  0  0  0  0  0  0
   -6.3991    0.6867    0.6384 H   0  0  0  0  0  0  0  0  0  0  0  0
   -4.7374    2.1327    1.7758 H   0  0  0  0  0  0  0  0  0  0  0  0
   -2.3398    1.5400    1.7361 H   0  0  0  0  0  0  0  0  0  0  0  0
    1.5690    1.4217    0.3474 H   0  0  0  0  0  0  0  0  0  0  0  0
  1  2  1  0
  2  3  1  0
  3  4  1  0
  4  5  2  0
  5  6  1  0
  6  7  1  0
  6  8  2  0
  8  9  1  0
  9 10  1  0
 10 11  1  0
 11 12  2  0
 12 13  1  0
 13 14  2  0
 14 15  1  0
 15 16  2  0
  8 17  1  0
 17  3  2  0
 16 11  1  0
  1 18  1  0
  1 19  1  0
  1 20  1  0
  4 21  1  0
  5 22  1  0
  9 23  1  0
  9 24  1  0
 10 25  1  0
 10 26  1  0
 12 27  1  0
 13 28  1  0
 14 29  1  0
 15 30  1  0
 16 31  1  0
 17 32  1  0
M  RAD  1   7   3
M  END
$$$$
