
     RDKit          3D

 31 32  0  0  0  0  0  0  0  0999 V2000
   -1.3301    1.8181   -0.1734 C   0  0  0  0  0  0  0  0  0  0  0  0
   -1.6903    0.4411    0.3200 C   0  0  0  0  0  0  0  0  0  0  0  0
   -2.3568    0.3164    1.5525 C   0  0  0  0  0  0  0  0  0  0  0  0
   -2.7268   -0.9383    2.0383 C   0  0  0  0  0  0  0  0  0  0  0  0
   -2.4426   -2.0852    1.3002 C   0  0  0  0  0  0  0  0  0  0  0  0
   -1.7849   -1.9826    0.0741 C   0  0  0  0  0  0  0  0  0  0  0  0
   -1.3992   -0.7281   -0.4332 C   0  0  0  0  0  0  0  0  0  0  0  0
   -0.6514   -0.6894   -1.7516 C   0  0  0  0  0  0  0  0  0  0  0  0
    0.7977   -1.1799   -1.6067 C   0  0  0  0  0  0  0  0  0  0  0  0
    1.6291   -0.2433   -0.7623 C   0  0  0  0  0  0  0  0  0  0  0  0
    1.7378   -0.4705    0.6211 C   0  0  0  0  0  0  0  0  0  0  0  0
    2.4646    0.4085    1.4279 C   0  0  0  0  0  0  0  0  0  0  0  0
    3.0878    1.5233    0.8641 C   0  0  0  0  0  0  0  0  0  0  0  0
    2.9833    1.7639   -0.5078 C   0  0  0  0  0  0  0  0  0  0  0  0
    2.2551    0.8902   -1.3243 C   0  0  0  0  0  0  0  0  0  0  0  0
    2.1449    1.1707   -2.7180 N   0  0  0  0  0  1  0  0  0  0  0  0
   -1.5878    2.6016    0.5706 H   0  0  0  0  0  0  0  0  0  0  0  0
   -1.8863    2.0393   -1.1082 H   0  0  0  0  0  0  0  0  0  0  0  0
   -0.2407    1.8849   -0.3634 H   0  0  0  0  0  0  0  0  0  0  0  0
   -2.5937    1.1933    2.1424 H   0  0  0  0  0  0  0  0  0  0  0  0
   -3.2377   -1.0208    2.9890 H   0  0  0  0  0  0  0  0  0  0  0  0
   -2.7313   -3.0571    1.6792 H   0  0  0  0  0  0  0  0  0  0  0  0
   -1.5697   -2.8868   -0.4820 H   0  0  0  0  0  0  0  0  0  0  0  0
   -0.6600    0.3200   -2.2109 H   0  0  0  0  0  0  0  0  0  0  0  0
   -1.1744   -1.3533   -2.4739 H   0  0  0  0  0  0  0  0  0  0  0  0
    0.8092   -2.2026   -1.1700 H   0  0  0  0  0  0  0  0  0  0  0  0
    1.2487   -1.2748   -2.6178 H   0  0  0  0  0  0  0  0  0  0  0  0
    1.2511   -1.3242    1.0765 H   0  0  0  0  0  0  0  0  0  0  0  0
    2.5415    0.2270    2.4921 H   0  0  0  0  0  0  0  0  0  0  0  0
    3.6491    2.2038    1.4913 H   0  0  0  0  0  0  0  0  0  0  0  0
    3.4641    2.6346   -0.9359 H   0  0  0  0  0  0  0  0  0  0  0  0
  1  2  1  0
  2  3  2  0
  3  4  1  0
  4  5  2  0
  5  6  1  0
  6  7  2  0
  7  8  1  0
  8  9  1  0
  9 10  1  0
 10 11  2  0
 11 12  1  0
 12 13  2  0
 13 14  1  0
 14 15  2  0
 15 16  1  0
  7  2  1  0
 15 10  1  0
  1 17  1  0
  1 18  1  0
  1 19  1  0
  3 20  1  0
  4 21  1  0
  5 22  1  0
  6 23  1  0
  8 24  1  0
  8 25  1  0
  9 26  1  0
  9 27  1  0
 11 28  1  0
 12 29  1  0
 13 30  1  0
 14 31  1  0
M  RAD  1  16   3
M  END
$$$$
