
     RDKit          3D

 31 32  0  0  0  0  0  0  0  0999 V2000
   -1.5098   -1.3618   -0.9055 C   0  0  0  0  0  0  0  0  0  0  0  0
   -1.7620   -0.1027   -0.1177 C   0  0  0  0  0  0  0  0  0  0  0  0
   -2.5895    0.8895   -0.6739 C   0  0  0  0  0  0  0  0  0  0  0  0
   -2.8658    2.0628    0.0291 C   0  0  0  0  0  0  0  0  0  0  0  0
   -2.3258    2.2608    1.2981 C   0  0  0  0  0  0  0  0  0  0  0  0
   -1.5051    1.2874    1.8685 C   0  0  0  0  0  0  0  0  0  0  0  0
   -1.2100    0.0987    1.1761 C   0  0  0  0  0  0  0  0  0  0  0  0
   -0.2784   -0.9000    1.8348 C   0  0  0  0  0  0  0  0  0  0  0  0
    1.1817   -0.4210    1.8223 C   0  0  0  0  0  0  0  0  0  0  0  0
    1.7451   -0.3634    0.4220 C   0  0  0  0  0  0  0  0  0  0  0  0
    1.6666    0.8365   -0.3069 C   0  0  0  0  0  0  0  0  0  0  0  0
    2.1408    0.8997   -1.6196 C   0  0  0  0  0  0  0  0  0  0  0  0
    2.6952   -0.2328   -2.2188 C   0  0  0  0  0  0  0  0  0  0  0  0
    2.7741   -1.4327   -1.5080 C   0  0  0  0  0  0  0  0  0  0  0  0
    2.2995   -1.5065   -0.1929 C   0  0  0  0  0  0  0  0  0  0  0  0
    2.3711   -2.7491    0.5030 N   0  0  0  0  0  1  0  0  0  0  0  0
   -1.9780   -1.3177   -1.9118 H   0  0  0  0  0  0  0  0  0  0  0  0
   -1.9385   -2.2332   -0.3678 H   0  0  0  0  0  0  0  0  0  0  0  0
   -0.4219   -1.5121   -1.0510 H   0  0  0  0  0  0  0  0  0  0  0  0
   -3.0255    0.7568   -1.6564 H   0  0  0  0  0  0  0  0  0  0  0  0
   -3.5028    2.8194   -0.4107 H   0  0  0  0  0  0  0  0  0  0  0  0
   -2.5423    3.1715    1.8414 H   0  0  0  0  0  0  0  0  0  0  0  0
   -1.0919    1.4629    2.8543 H   0  0  0  0  0  0  0  0  0  0  0  0
   -0.3456   -1.9061    1.3733 H   0  0  0  0  0  0  0  0  0  0  0  0
   -0.5937   -1.0323    2.8927 H   0  0  0  0  0  0  0  0  0  0  0  0
    1.7921   -1.1098    2.4450 H   0  0  0  0  0  0  0  0  0  0  0  0
    1.2568    0.5769    2.3075 H   0  0  0  0  0  0  0  0  0  0  0  0
    1.2291    1.7214    0.1389 H   0  0  0  0  0  0  0  0  0  0  0  0
    2.0748    1.8269   -2.1739 H   0  0  0  0  0  0  0  0  0  0  0  0
    3.0605   -0.1820   -3.2364 H   0  0  0  0  0  0  0  0  0  0  0  0
    3.1994   -2.3081   -1.9826 H   0  0  0  0  0  0  0  0  0  0  0  0
  1  2  1  0
  2  3  2  0
  3  4  1  0
  4  5  2  0
  5  6  1  0
  6  7  2  0
  7  8  1  0
  8  9  1  0
  9 10  1  0
 10 11  2  0
 11 12  1  0
 12 13  2  0
 13 14  1  0
 14 15  2  0
 15 16  1  0
  7  2  1  0
 15 10  1  0
  1 17  1  0
  1 18  1  0
  1 19  1  0
  3 20  1  0
  4 21  1  0
  5 22  1  0
  6 23  1  0
  8 24  1  0
  8 25  1  0
  9 26  1  0
  9 27  1  0
 11 28  1  0
 12 29  1  0
 13 30  1  0
 14 31  1  0
M  RAD  1  16   3
M  END
$$$$
