
     RDKit          3D

 31 32  0  0  0  0  0  0  0  0999 V2000
    1.7782   -0.5701    1.5262 C   0  0  0  0  0  0  0  0  0  0  0  0
    1.7683    0.1590    0.2079 C   0  0  0  0  0  0  0  0  0  0  0  0
    2.4861    1.3634    0.0950 C   0  0  0  0  0  0  0  0  0  0  0  0
    2.5204    2.0615   -1.1128 C   0  0  0  0  0  0  0  0  0  0  0  0
    1.8444    1.5660   -2.2258 C   0  0  0  0  0  0  0  0  0  0  0  0
    1.1292    0.3717   -2.1351 C   0  0  0  0  0  0  0  0  0  0  0  0
    1.0778   -0.3467   -0.9264 C   0  0  0  0  0  0  0  0  0  0  0  0
    0.2492   -1.6158   -0.8836 C   0  0  0  0  0  0  0  0  0  0  0  0
   -1.2587   -1.3195   -0.8792 C   0  0  0  0  0  0  0  0  0  0  0  0
   -1.6954   -0.6328    0.3934 C   0  0  0  0  0  0  0  0  0  0  0  0
   -1.7305    0.7719    0.4451 C   0  0  0  0  0  0  0  0  0  0  0  0
   -2.0881    1.4282    1.6255 C   0  0  0  0  0  0  0  0  0  0  0  0
   -2.4117    0.6908    2.7659 C   0  0  0  0  0  0  0  0  0  0  0  0
   -2.3755   -0.7051    2.7300 C   0  0  0  0  0  0  0  0  0  0  0  0
   -2.0160   -1.3718    1.5525 C   0  0  0  0  0  0  0  0  0  0  0  0
   -1.9649   -2.7968    1.5486 N   0  0  0  0  0  1  0  0  0  0  0  0
    0.7423   -0.7229    1.8881 H   0  0  0  0  0  0  0  0  0  0  0  0
    2.2811   -1.5525    1.4081 H   0  0  0  0  0  0  0  0  0  0  0  0
    2.3237    0.0008    2.3074 H   0  0  0  0  0  0  0  0  0  0  0  0
    3.0240    1.7664    0.9443 H   0  0  0  0  0  0  0  0  0  0  0  0
    3.0750    2.9881   -1.1862 H   0  0  0  0  0  0  0  0  0  0  0  0
    1.8732    2.1093   -3.1615 H   0  0  0  0  0  0  0  0  0  0  0  0
    0.6071    0.0061   -3.0110 H   0  0  0  0  0  0  0  0  0  0  0  0
    0.5064   -2.2575   -0.0165 H   0  0  0  0  0  0  0  0  0  0  0  0
    0.4836   -2.2212   -1.7863 H   0  0  0  0  0  0  0  0  0  0  0  0
   -1.8138   -2.2744   -1.0006 H   0  0  0  0  0  0  0  0  0  0  0  0
   -1.5248   -0.6973   -1.7617 H   0  0  0  0  0  0  0  0  0  0  0  0
   -1.4715    1.3594   -0.4272 H   0  0  0  0  0  0  0  0  0  0  0  0
   -2.1107    2.5098    1.6569 H   0  0  0  0  0  0  0  0  0  0  0  0
   -2.6869    1.2013    3.6797 H   0  0  0  0  0  0  0  0  0  0  0  0
   -2.6213   -1.2693    3.6209 H   0  0  0  0  0  0  0  0  0  0  0  0
  1  2  1  0
  2  3  2  0
  3  4  1  0
  4  5  2  0
  5  6  1  0
  6  7  2  0
  7  8  1  0
  8  9  1  0
  9 10  1  0
 10 11  2  0
 11 12  1  0
 12 13  2  0
 13 14  1  0
 14 15  2  0
 15 16  1  0
  7  2  1  0
 15 10  1  0
  1 17  1  0
  1 18  1  0
  1 19  1  0
  3 20  1  0
  4 21  1  0
  5 22  1  0
  6 23  1  0
  8 24  1  0
  8 25  1  0
  9 26  1  0
  9 27  1  0
 11 28  1  0
 12 29  1  0
 13 30  1  0
 14 31  1  0
M  RAD  1  16   3
M  END
$$$$
