
     RDKit          3D

 31 32  0  0  0  0  0  0  0  0999 V2000
   -0.9395    0.8037   -1.8911 C   0  0  0  0  0  0  0  0  0  0  0  0
   -1.5853   -0.0107   -0.8006 C   0  0  0  0  0  0  0  0  0  0  0  0
   -2.3227   -1.1547   -1.1563 C   0  0  0  0  0  0  0  0  0  0  0  0
   -2.9537   -1.9271   -0.1805 C   0  0  0  0  0  0  0  0  0  0  0  0
   -2.8632   -1.5671    1.1624 C   0  0  0  0  0  0  0  0  0  0  0  0
   -2.1391   -0.4345    1.5355 C   0  0  0  0  0  0  0  0  0  0  0  0
   -1.4916    0.3567    0.5688 C   0  0  0  0  0  0  0  0  0  0  0  0
   -0.6871    1.5507    1.0444 C   0  0  0  0  0  0  0  0  0  0  0  0
    0.6295    1.1282    1.7149 C   0  0  0  0  0  0  0  0  0  0  0  0
    1.5855    0.4943    0.7322 C   0  0  0  0  0  0  0  0  0  0  0  0
    1.5801   -0.9017    0.5633 C   0  0  0  0  0  0  0  0  0  0  0  0
    2.4242   -1.5049   -0.3723 C   0  0  0  0  0  0  0  0  0  0  0  0
    3.2798   -0.7225   -1.1500 C   0  0  0  0  0  0  0  0  0  0  0  0
    3.2914    0.6658   -0.9964 C   0  0  0  0  0  0  0  0  0  0  0  0
    2.4474    1.2798   -0.0632 C   0  0  0  0  0  0  0  0  0  0  0  0
    2.4622    2.7005    0.0582 N   0  0  0  0  0  1  0  0  0  0  0  0
   -1.3955    1.8151   -1.9243 H   0  0  0  0  0  0  0  0  0  0  0  0
   -1.0753    0.3352   -2.8890 H   0  0  0  0  0  0  0  0  0  0  0  0
    0.1499    0.8919   -1.7103 H   0  0  0  0  0  0  0  0  0  0  0  0
   -2.4123   -1.4522   -2.1938 H   0  0  0  0  0  0  0  0  0  0  0  0
   -3.5167   -2.8060   -0.4671 H   0  0  0  0  0  0  0  0  0  0  0  0
   -3.3542   -2.1678    1.9171 H   0  0  0  0  0  0  0  0  0  0  0  0
   -2.0776   -0.1745    2.5852 H   0  0  0  0  0  0  0  0  0  0  0  0
   -1.2938    2.1116    1.7884 H   0  0  0  0  0  0  0  0  0  0  0  0
   -0.4761    2.2690    0.2262 H   0  0  0  0  0  0  0  0  0  0  0  0
    0.4198    0.4276    2.5527 H   0  0  0  0  0  0  0  0  0  0  0  0
    1.1021    2.0221    2.1757 H   0  0  0  0  0  0  0  0  0  0  0  0
    0.9144   -1.5225    1.1504 H   0  0  0  0  0  0  0  0  0  0  0  0
    2.4121   -2.5799   -0.4970 H   0  0  0  0  0  0  0  0  0  0  0  0
    3.9318   -1.1918   -1.8753 H   0  0  0  0  0  0  0  0  0  0  0  0
    3.9532    1.2658   -1.6084 H   0  0  0  0  0  0  0  0  0  0  0  0
  1  2  1  0
  2  3  2  0
  3  4  1  0
  4  5  2  0
  5  6  1  0
  6  7  2  0
  7  8  1  0
  8  9  1  0
  9 10  1  0
 10 11  2  0
 11 12  1  0
 12 13  2  0
 13 14  1  0
 14 15  2  0
 15 16  1  0
  7  2  1  0
 15 10  1  0
  1 17  1  0
  1 18  1  0
  1 19  1  0
  3 20  1  0
  4 21  1  0
  5 22  1  0
  6 23  1  0
  8 24  1  0
  8 25  1  0
  9 26  1  0
  9 27  1  0
 11 28  1  0
 12 29  1  0
 13 30  1  0
 14 31  1  0
M  RAD  1  16   3
M  END
$$$$
