
     RDKit          3D

 31 32  0  0  0  0  0  0  0  0999 V2000
   -2.0976   -1.8876   -0.7611 C   0  0  0  0  0  0  0  0  0  0  0  0
   -2.5108   -0.7365    0.1190 C   0  0  0  0  0  0  0  0  0  0  0  0
   -3.8804   -0.4602    0.2803 C   0  0  0  0  0  0  0  0  0  0  0  0
   -4.3026    0.5914    1.0954 C   0  0  0  0  0  0  0  0  0  0  0  0
   -3.3656    1.3788    1.7625 C   0  0  0  0  0  0  0  0  0  0  0  0
   -2.0026    1.1136    1.6229 C   0  0  0  0  0  0  0  0  0  0  0  0
   -1.5574    0.0505    0.8168 C   0  0  0  0  0  0  0  0  0  0  0  0
   -0.0686   -0.1752    0.6805 C   0  0  0  0  0  0  0  0  0  0  0  0
    0.5112    0.6971   -0.4381 C   0  0  0  0  0  0  0  0  0  0  0  0
    1.9871    0.4332   -0.6061 C   0  0  0  0  0  0  0  0  0  0  0  0
    2.4137   -0.5542   -1.5114 C   0  0  0  0  0  0  0  0  0  0  0  0
    3.7739   -0.8375   -1.6606 C   0  0  0  0  0  0  0  0  0  0  0  0
    4.7203   -0.1466   -0.9013 C   0  0  0  0  0  0  0  0  0  0  0  0
    4.3087    0.8260    0.0130 C   0  0  0  0  0  0  0  0  0  0  0  0
    2.9480    1.1166    0.1697 C   0  0  0  0  0  0  0  0  0  0  0  0
    2.5527    2.1021    1.1216 N   0  0  0  0  0  1  0  0  0  0  0  0
   -2.9564   -2.2865   -1.3419 H   0  0  0  0  0  0  0  0  0  0  0  0
   -1.3262   -1.5611   -1.4885 H   0  0  0  0  0  0  0  0  0  0  0  0
   -1.6914   -2.7088   -0.1344 H   0  0  0  0  0  0  0  0  0  0  0  0
   -4.6267   -1.0582   -0.2281 H   0  0  0  0  0  0  0  0  0  0  0  0
   -5.3592    0.7973    1.2083 H   0  0  0  0  0  0  0  0  0  0  0  0
   -3.6957    2.1971    2.3893 H   0  0  0  0  0  0  0  0  0  0  0  0
   -1.2898    1.7400    2.1455 H   0  0  0  0  0  0  0  0  0  0  0  0
    0.1540   -1.2453    0.4841 H   0  0  0  0  0  0  0  0  0  0  0  0
    0.4345    0.0752    1.6406 H   0  0  0  0  0  0  0  0  0  0  0  0
   -0.0185    0.4878   -1.3930 H   0  0  0  0  0  0  0  0  0  0  0  0
    0.3378    1.7708   -0.2077 H   0  0  0  0  0  0  0  0  0  0  0  0
    1.6916   -1.1063   -2.1006 H   0  0  0  0  0  0  0  0  0  0  0  0
    4.0942   -1.5962   -2.3630 H   0  0  0  0  0  0  0  0  0  0  0  0
    5.7733   -0.3686   -1.0175 H   0  0  0  0  0  0  0  0  0  0  0  0
    5.0486    1.3515    0.6037 H   0  0  0  0  0  0  0  0  0  0  0  0
  1  2  1  0
  2  3  2  0
  3  4  1  0
  4  5  2  0
  5  6  1  0
  6  7  2  0
  7  8  1  0
  8  9  1  0
  9 10  1  0
 10 11  2  0
 11 12  1  0
 12 13  2  0
 13 14  1  0
 14 15  2  0
 15 16  1  0
  7  2  1  0
 15 10  1  0
  1 17  1  0
  1 18  1  0
  1 19  1  0
  3 20  1  0
  4 21  1  0
  5 22  1  0
  6 23  1  0
  8 24  1  0
  8 25  1  0
  9 26  1  0
  9 27  1  0
 11 28  1  0
 12 29  1  0
 13 30  1  0
 14 31  1  0
M  RAD  1  16   3
M  END
$$$$
