
     RDKit          3D

 31 32  0  0  0  0  0  0  0  0999 V2000
   -1.8317    2.2712   -0.3739 C   0  0  0  0  0  0  0  0  0  0  0  0
   -2.4536    0.8989   -0.3869 C   0  0  0  0  0  0  0  0  0  0  0  0
   -3.8396    0.7774   -0.1807 C   0  0  0  0  0  0  0  0  0  0  0  0
   -4.4537   -0.4760   -0.1957 C   0  0  0  0  0  0  0  0  0  0  0  0
   -3.6951   -1.6238   -0.4196 C   0  0  0  0  0  0  0  0  0  0  0  0
   -2.3202   -1.5224   -0.6363 C   0  0  0  0  0  0  0  0  0  0  0  0
   -1.6847   -0.2677   -0.6382 C   0  0  0  0  0  0  0  0  0  0  0  0
   -0.1888   -0.2187   -0.8521 C   0  0  0  0  0  0  0  0  0  0  0  0
    0.5544   -0.4077    0.4747 C   0  0  0  0  0  0  0  0  0  0  0  0
    2.0454   -0.3077    0.2668 C   0  0  0  0  0  0  0  0  0  0  0  0
    2.6779    0.9418    0.3907 C   0  0  0  0  0  0  0  0  0  0  0  0
    4.0527    1.0639    0.1719 C   0  0  0  0  0  0  0  0  0  0  0  0
    4.8074   -0.0560   -0.1825 C   0  0  0  0  0  0  0  0  0  0  0  0
    4.1885   -1.3003   -0.3242 C   0  0  0  0  0  0  0  0  0  0  0  0
    2.8115   -1.4325   -0.1073 C   0  0  0  0  0  0  0  0  0  0  0  0
    2.2010   -2.7104   -0.2745 N   0  0  0  0  0  1  0  0  0  0  0  0
   -2.5467    3.0403   -0.0115 H   0  0  0  0  0  0  0  0  0  0  0  0
   -0.9511    2.2907    0.3006 H   0  0  0  0  0  0  0  0  0  0  0  0
   -1.5167    2.5475   -1.4018 H   0  0  0  0  0  0  0  0  0  0  0  0
   -4.4493    1.6551   -0.0047 H   0  0  0  0  0  0  0  0  0  0  0  0
   -5.5204   -0.5574   -0.0313 H   0  0  0  0  0  0  0  0  0  0  0  0
   -4.1732   -2.5948   -0.4250 H   0  0  0  0  0  0  0  0  0  0  0  0
   -1.7472   -2.4265   -0.8035 H   0  0  0  0  0  0  0  0  0  0  0  0
    0.1129    0.7395   -1.3253 H   0  0  0  0  0  0  0  0  0  0  0  0
    0.1119   -1.0225   -1.5600 H   0  0  0  0  0  0  0  0  0  0  0  0
    0.2944   -1.3946    0.9156 H   0  0  0  0  0  0  0  0  0  0  0  0
    0.2248    0.3631    1.2051 H   0  0  0  0  0  0  0  0  0  0  0  0
    2.1050    1.8222    0.6551 H   0  0  0  0  0  0  0  0  0  0  0  0
    4.5326    2.0287    0.2738 H   0  0  0  0  0  0  0  0  0  0  0  0
    5.8719    0.0411   -0.3528 H   0  0  0  0  0  0  0  0  0  0  0  0
    4.7797   -2.1623   -0.6071 H   0  0  0  0  0  0  0  0  0  0  0  0
  1  2  1  0
  2  3  2  0
  3  4  1  0
  4  5  2  0
  5  6  1  0
  6  7  2  0
  7  8  1  0
  8  9  1  0
  9 10  1  0
 10 11  2  0
 11 12  1  0
 12 13  2  0
 13 14  1  0
 14 15  2  0
 15 16  1  0
  7  2  1  0
 15 10  1  0
  1 17  1  0
  1 18  1  0
  1 19  1  0
  3 20  1  0
  4 21  1  0
  5 22  1  0
  6 23  1  0
  8 24  1  0
  8 25  1  0
  9 26  1  0
  9 27  1  0
 11 28  1  0
 12 29  1  0
 13 30  1  0
 14 31  1  0
M  RAD  1  16   3
M  END
$$$$
