
     RDKit          3D

 31 32  0  0  0  0  0  0  0  0999 V2000
   -1.5536    0.9236   -1.3871 C   0  0  0  0  0  0  0  0  0  0  0  0
   -1.7634   -0.0302   -0.2401 C   0  0  0  0  0  0  0  0  0  0  0  0
   -2.5504   -1.1773   -0.4489 C   0  0  0  0  0  0  0  0  0  0  0  0
   -2.7870   -2.0775    0.5908 C   0  0  0  0  0  0  0  0  0  0  0  0
   -2.2473   -1.8440    1.8538 C   0  0  0  0  0  0  0  0  0  0  0  0
   -1.4665   -0.7106    2.0820 C   0  0  0  0  0  0  0  0  0  0  0  0
   -1.2117    0.2083    1.0475 C   0  0  0  0  0  0  0  0  0  0  0  0
   -0.3216    1.3977    1.3508 C   0  0  0  0  0  0  0  0  0  0  0  0
    1.1553    0.9937    1.4812 C   0  0  0  0  0  0  0  0  0  0  0  0
    1.7284    0.5172    0.1674 C   0  0  0  0  0  0  0  0  0  0  0  0
    1.6987   -0.8537   -0.1443 C   0  0  0  0  0  0  0  0  0  0  0  0
    2.1823   -1.3109   -1.3727 C   0  0  0  0  0  0  0  0  0  0  0  0
    2.6977   -0.4063   -2.3027 C   0  0  0  0  0  0  0  0  0  0  0  0
    2.7281    0.9588   -2.0081 C   0  0  0  0  0  0  0  0  0  0  0  0
    2.2436    1.4270   -0.7809 C   0  0  0  0  0  0  0  0  0  0  0  0
    2.2650    2.8276   -0.5139 N   0  0  0  0  0  1  0  0  0  0  0  0
   -0.4712    1.0604   -1.5795 H   0  0  0  0  0  0  0  0  0  0  0  0
   -2.0141    0.5463   -2.3248 H   0  0  0  0  0  0  0  0  0  0  0  0
   -2.0174    1.9038   -1.1498 H   0  0  0  0  0  0  0  0  0  0  0  0
   -2.9854   -1.3782   -1.4202 H   0  0  0  0  0  0  0  0  0  0  0  0
   -3.3930   -2.9574    0.4167 H   0  0  0  0  0  0  0  0  0  0  0  0
   -2.4330   -2.5437    2.6585 H   0  0  0  0  0  0  0  0  0  0  0  0
   -1.0528   -0.5500    3.0701 H   0  0  0  0  0  0  0  0  0  0  0  0
   -0.6476    1.8460    2.3146 H   0  0  0  0  0  0  0  0  0  0  0  0
   -0.4234    2.2032    0.5954 H   0  0  0  0  0  0  0  0  0  0  0  0
    1.7362    1.8661    1.8504 H   0  0  0  0  0  0  0  0  0  0  0  0
    1.2646    0.2039    2.2565 H   0  0  0  0  0  0  0  0  0  0  0  0
    1.2918   -1.5677    0.5611 H   0  0  0  0  0  0  0  0  0  0  0  0
    2.1539   -2.3676   -1.6051 H   0  0  0  0  0  0  0  0  0  0  0  0
    3.0704   -0.7626   -3.2543 H   0  0  0  0  0  0  0  0  0  0  0  0
    3.1233    1.6544   -2.7378 H   0  0  0  0  0  0  0  0  0  0  0  0
  1  2  1  0
  2  3  2  0
  3  4  1  0
  4  5  2  0
  5  6  1  0
  6  7  2  0
  7  8  1  0
  8  9  1  0
  9 10  1  0
 10 11  2  0
 11 12  1  0
 12 13  2  0
 13 14  1  0
 14 15  2  0
 15 16  1  0
  7  2  1  0
 15 10  1  0
  1 17  1  0
  1 18  1  0
  1 19  1  0
  3 20  1  0
  4 21  1  0
  5 22  1  0
  6 23  1  0
  8 24  1  0
  8 25  1  0
  9 26  1  0
  9 27  1  0
 11 28  1  0
 12 29  1  0
 13 30  1  0
 14 31  1  0
M  RAD  1  16   3
M  END
$$$$
