
     RDKit          3D

 31 32  0  0  0  0  0  0  0  0999 V2000
    2.1739    1.6575    1.0333 C   0  0  0  0  0  0  0  0  0  0  0  0
    2.5700    0.3897    0.3221 C   0  0  0  0  0  0  0  0  0  0  0  0
    3.9111    0.2163   -0.0646 C   0  0  0  0  0  0  0  0  0  0  0  0
    4.3184   -0.9489   -0.7165 C   0  0  0  0  0  0  0  0  0  0  0  0
    3.3953   -1.9572   -0.9882 C   0  0  0  0  0  0  0  0  0  0  0  0
    2.0623   -1.8078   -0.6031 C   0  0  0  0  0  0  0  0  0  0  0  0
    1.6346   -0.6472    0.0663 C   0  0  0  0  0  0  0  0  0  0  0  0
    0.1738   -0.5268    0.4370 C   0  0  0  0  0  0  0  0  0  0  0  0
   -0.6354    0.0489   -0.7302 C   0  0  0  0  0  0  0  0  0  0  0  0
   -2.0835    0.2156   -0.3410 C   0  0  0  0  0  0  0  0  0  0  0  0
   -2.5133    1.4328    0.2159 C   0  0  0  0  0  0  0  0  0  0  0  0
   -3.8428    1.5992    0.6128 C   0  0  0  0  0  0  0  0  0  0  0  0
   -4.7532    0.5506    0.4677 C   0  0  0  0  0  0  0  0  0  0  0  0
   -4.3353   -0.6692   -0.0699 C   0  0  0  0  0  0  0  0  0  0  0  0
   -3.0052   -0.8455   -0.4700 C   0  0  0  0  0  0  0  0  0  0  0  0
   -2.6000   -2.1057   -1.0005 N   0  0  0  0  0  1  0  0  0  0  0  0
    1.9425    1.4325    2.0954 H   0  0  0  0  0  0  0  0  0  0  0  0
    2.9891    2.4118    1.0081 H   0  0  0  0  0  0  0  0  0  0  0  0
    1.2849    2.1113    0.5492 H   0  0  0  0  0  0  0  0  0  0  0  0
    4.6461    0.9862    0.1358 H   0  0  0  0  0  0  0  0  0  0  0  0
    5.3523   -1.0690   -1.0133 H   0  0  0  0  0  0  0  0  0  0  0  0
    3.7129   -2.8572   -1.4989 H   0  0  0  0  0  0  0  0  0  0  0  0
    1.3590   -2.6006   -0.8278 H   0  0  0  0  0  0  0  0  0  0  0  0
   -0.2262   -1.5304    0.7023 H   0  0  0  0  0  0  0  0  0  0  0  0
    0.0446    0.1067    1.3398 H   0  0  0  0  0  0  0  0  0  0  0  0
   -0.2129    1.0314   -1.0341 H   0  0  0  0  0  0  0  0  0  0  0  0
   -0.5508   -0.6201   -1.6142 H   0  0  0  0  0  0  0  0  0  0  0  0
   -1.8173    2.2528    0.3446 H   0  0  0  0  0  0  0  0  0  0  0  0
   -4.1666    2.5410    1.0365 H   0  0  0  0  0  0  0  0  0  0  0  0
   -5.7822    0.6812    0.7769 H   0  0  0  0  0  0  0  0  0  0  0  0
   -5.0459   -1.4800   -0.1716 H   0  0  0  0  0  0  0  0  0  0  0  0
  1  2  1  0
  2  3  2  0
  3  4  1  0
  4  5  2  0
  5  6  1  0
  6  7  2  0
  7  8  1  0
  8  9  1  0
  9 10  1  0
 10 11  2  0
 11 12  1  0
 12 13  2  0
 13 14  1  0
 14 15  2  0
 15 16  1  0
  7  2  1  0
 15 10  1  0
  1 17  1  0
  1 18  1  0
  1 19  1  0
  3 20  1  0
  4 21  1  0
  5 22  1  0
  6 23  1  0
  8 24  1  0
  8 25  1  0
  9 26  1  0
  9 27  1  0
 11 28  1  0
 12 29  1  0
 13 30  1  0
 14 31  1  0
M  RAD  1  16   3
M  END
$$$$
