
     RDKit          3D

 31 32  0  0  0  0  0  0  0  0999 V2000
   -1.5460    0.5938    2.2834 C   0  0  0  0  0  0  0  0  0  0  0  0
   -2.3237    0.4363    1.0025 C   0  0  0  0  0  0  0  0  0  0  0  0
   -3.6637    0.8617    0.9628 C   0  0  0  0  0  0  0  0  0  0  0  0
   -4.4196    0.7230   -0.2024 C   0  0  0  0  0  0  0  0  0  0  0  0
   -3.8510    0.1557   -1.3415 C   0  0  0  0  0  0  0  0  0  0  0  0
   -2.5260   -0.2817   -1.3183 C   0  0  0  0  0  0  0  0  0  0  0  0
   -1.7516   -0.1629   -0.1503 C   0  0  0  0  0  0  0  0  0  0  0  0
   -0.3139   -0.6292   -0.1891 C   0  0  0  0  0  0  0  0  0  0  0  0
    0.6023    0.4831   -0.7105 C   0  0  0  0  0  0  0  0  0  0  0  0
    2.0423    0.0331   -0.7005 C   0  0  0  0  0  0  0  0  0  0  0  0
    2.8331    0.2729    0.4369 C   0  0  0  0  0  0  0  0  0  0  0  0
    4.1602   -0.1627    0.4808 C   0  0  0  0  0  0  0  0  0  0  0  0
    4.7077   -0.8502   -0.6041 C   0  0  0  0  0  0  0  0  0  0  0  0
    3.9279   -1.1087   -1.7340 C   0  0  0  0  0  0  0  0  0  0  0  0
    2.5972   -0.6765   -1.7872 C   0  0  0  0  0  0  0  0  0  0  0  0
    1.8175   -0.9673   -2.9452 N   0  0  0  0  0  1  0  0  0  0  0  0
   -2.0957    1.2163    3.0211 H   0  0  0  0  0  0  0  0  0  0  0  0
   -1.3672   -0.4038    2.7361 H   0  0  0  0  0  0  0  0  0  0  0  0
   -0.5736    1.0905    2.0871 H   0  0  0  0  0  0  0  0  0  0  0  0
   -4.1268    1.3056    1.8355 H   0  0  0  0  0  0  0  0  0  0  0  0
   -5.4486    1.0583   -0.2223 H   0  0  0  0  0  0  0  0  0  0  0  0
   -4.4379    0.0547   -2.2453 H   0  0  0  0  0  0  0  0  0  0  0  0
   -2.1006   -0.7153   -2.2153 H   0  0  0  0  0  0  0  0  0  0  0  0
    0.0227   -0.9611    0.8157 H   0  0  0  0  0  0  0  0  0  0  0  0
   -0.2291   -1.5173   -0.8538 H   0  0  0  0  0  0  0  0  0  0  0  0
    0.2980    0.7710   -1.7403 H   0  0  0  0  0  0  0  0  0  0  0  0
    0.4888    1.3920   -0.0802 H   0  0  0  0  0  0  0  0  0  0  0  0
    2.4205    0.7961    1.2909 H   0  0  0  0  0  0  0  0  0  0  0  0
    4.7636    0.0300    1.3585 H   0  0  0  0  0  0  0  0  0  0  0  0
    5.7354   -1.1879   -0.5674 H   0  0  0  0  0  0  0  0  0  0  0  0
    4.3578   -1.6496   -2.5678 H   0  0  0  0  0  0  0  0  0  0  0  0
  1  2  1  0
  2  3  2  0
  3  4  1  0
  4  5  2  0
  5  6  1  0
  6  7  2  0
  7  8  1  0
  8  9  1  0
  9 10  1  0
 10 11  2  0
 11 12  1  0
 12 13  2  0
 13 14  1  0
 14 15  2  0
 15 16  1  0
  7  2  1  0
 15 10  1  0
  1 17  1  0
  1 18  1  0
  1 19  1  0
  3 20  1  0
  4 21  1  0
  5 22  1  0
  6 23  1  0
  8 24  1  0
  8 25  1  0
  9 26  1  0
  9 27  1  0
 11 28  1  0
 12 29  1  0
 13 30  1  0
 14 31  1  0
M  RAD  1  16   3
M  END
$$$$
