
     RDKit          3D

 31 32  0  0  0  0  0  0  0  0999 V2000
   -1.5799    1.5250   -0.5320 C   0  0  0  0  0  0  0  0  0  0  0  0
   -1.7349    0.2621    0.2746 C   0  0  0  0  0  0  0  0  0  0  0  0
   -2.3710    0.3327    1.5273 C   0  0  0  0  0  0  0  0  0  0  0  0
   -2.5534   -0.8154    2.2991 C   0  0  0  0  0  0  0  0  0  0  0  0
   -2.1095   -2.0502    1.8307 C   0  0  0  0  0  0  0  0  0  0  0  0
   -1.4790   -2.1418    0.5896 C   0  0  0  0  0  0  0  0  0  0  0  0
   -1.2810   -0.9966   -0.2035 C   0  0  0  0  0  0  0  0  0  0  0  0
   -0.5524   -1.1583   -1.5234 C   0  0  0  0  0  0  0  0  0  0  0  0
    0.9530   -1.3948   -1.3253 C   0  0  0  0  0  0  0  0  0  0  0  0
    1.6438   -0.1821   -0.7477 C   0  0  0  0  0  0  0  0  0  0  0  0
    1.7903   -0.0671    0.6461 C   0  0  0  0  0  0  0  0  0  0  0  0
    2.3858    1.0668    1.2042 C   0  0  0  0  0  0  0  0  0  0  0  0
    2.8386    2.0977    0.3788 C   0  0  0  0  0  0  0  0  0  0  0  0
    2.6944    1.9988   -1.0070 C   0  0  0  0  0  0  0  0  0  0  0  0
    2.0968    0.8676   -1.5756 C   0  0  0  0  0  0  0  0  0  0  0  0
    1.9410    0.8014   -2.9914 N   0  0  0  0  0  1  0  0  0  0  0  0
   -0.5125    1.6979   -0.7729 H   0  0  0  0  0  0  0  0  0  0  0  0
   -2.1664    1.4450   -1.4710 H   0  0  0  0  0  0  0  0  0  0  0  0
   -1.9450    2.4149    0.0236 H   0  0  0  0  0  0  0  0  0  0  0  0
   -2.7297    1.2799    1.9109 H   0  0  0  0  0  0  0  0  0  0  0  0
   -3.0428   -0.7474    3.2621 H   0  0  0  0  0  0  0  0  0  0  0  0
   -2.2529   -2.9392    2.4312 H   0  0  0  0  0  0  0  0  0  0  0  0
   -1.1376   -3.1106    0.2459 H   0  0  0  0  0  0  0  0  0  0  0  0
   -0.7090   -0.2932   -2.1994 H   0  0  0  0  0  0  0  0  0  0  0  0
   -0.9771   -2.0371   -2.0558 H   0  0  0  0  0  0  0  0  0  0  0  0
    1.4085   -1.6560   -2.3046 H   0  0  0  0  0  0  0  0  0  0  0  0
    1.1143   -2.2775   -0.6684 H   0  0  0  0  0  0  0  0  0  0  0  0
    1.4342   -0.8524    1.3016 H   0  0  0  0  0  0  0  0  0  0  0  0
    2.4928    1.1478    2.2782 H   0  0  0  0  0  0  0  0  0  0  0  0
    3.2983    2.9759    0.8135 H   0  0  0  0  0  0  0  0  0  0  0  0
    3.0423    2.8060   -1.6395 H   0  0  0  0  0  0  0  0  0  0  0  0
  1  2  1  0
  2  3  2  0
  3  4  1  0
  4  5  2  0
  5  6  1  0
  6  7  2  0
  7  8  1  0
  8  9  1  0
  9 10  1  0
 10 11  2  0
 11 12  1  0
 12 13  2  0
 13 14  1  0
 14 15  2  0
 15 16  1  0
  7  2  1  0
 15 10  1  0
  1 17  1  0
  1 18  1  0
  1 19  1  0
  3 20  1  0
  4 21  1  0
  5 22  1  0
  6 23  1  0
  8 24  1  0
  8 25  1  0
  9 26  1  0
  9 27  1  0
 11 28  1  0
 12 29  1  0
 13 30  1  0
 14 31  1  0
M  RAD  1  16   3
M  END
$$$$
