
     RDKit          3D

 32 33  0  0  0  0  0  0  0  0999 V2000
    5.9983    0.5318    0.5411 C   0  0  0  0  0  0  0  0  0  0  0  0
    5.1223   -0.3043   -0.2077 O   0  0  0  0  0  0  0  0  0  0  0  0
    3.7343   -0.1204   -0.2949 C   0  0  0  0  0  0  0  0  0  0  0  0
    2.9913   -1.0203   -1.0678 C   0  0  0  0  0  0  0  0  0  0  0  0
    1.6057   -0.8798   -1.1867 C   0  0  0  0  0  0  0  0  0  0  0  0
    0.9432    0.1741   -0.5393 C   0  0  0  0  0  0  0  0  0  0  0  0
   -0.5529    0.3051   -0.6379 C   0  0  0  0  0  0  0  0  0  0  0  0
   -1.2378   -0.4924    0.4760 C   0  0  0  0  0  0  0  0  0  0  0  0
   -2.7380   -0.3650    0.3756 C   0  0  0  0  0  0  0  0  0  0  0  0
   -3.3939    0.6609    1.0785 C   0  0  0  0  0  0  0  0  0  0  0  0
   -4.7790    0.8157    0.9760 C   0  0  0  0  0  0  0  0  0  0  0  0
   -5.5214   -0.0441    0.1641 C   0  0  0  0  0  0  0  0  0  0  0  0
   -4.8801   -1.0580   -0.5514 C   0  0  0  0  0  0  0  0  0  0  0  0
   -3.4928   -1.2208   -0.4553 C   0  0  0  0  0  0  0  0  0  0  0  0
   -2.8602   -2.2536   -1.2082 N   0  0  0  0  0  1  0  0  0  0  0  0
    1.6824    1.0705    0.2476 C   0  0  0  0  0  0  0  0  0  0  0  0
    3.0684    0.9295    0.3663 C   0  0  0  0  0  0  0  0  0  0  0  0
    7.0370    0.1581    0.4327 H   0  0  0  0  0  0  0  0  0  0  0  0
    5.9531    1.5730    0.1574 H   0  0  0  0  0  0  0  0  0  0  0  0
    5.7222    0.5081    1.6165 H   0  0  0  0  0  0  0  0  0  0  0  0
    3.4906   -1.8353   -1.5763 H   0  0  0  0  0  0  0  0  0  0  0  0
    1.0491   -1.5932   -1.7819 H   0  0  0  0  0  0  0  0  0  0  0  0
   -0.8970   -0.0617   -1.6301 H   0  0  0  0  0  0  0  0  0  0  0  0
   -0.8429    1.3766   -0.5637 H   0  0  0  0  0  0  0  0  0  0  0  0
   -0.8927   -0.1192    1.4658 H   0  0  0  0  0  0  0  0  0  0  0  0
   -0.9403   -1.5620    0.4143 H   0  0  0  0  0  0  0  0  0  0  0  0
   -2.8317    1.3422    1.7053 H   0  0  0  0  0  0  0  0  0  0  0  0
   -5.2767    1.6053    1.5240 H   0  0  0  0  0  0  0  0  0  0  0  0
   -6.5939    0.0785    0.0851 H   0  0  0  0  0  0  0  0  0  0  0  0
   -5.4623   -1.7157   -1.1848 H   0  0  0  0  0  0  0  0  0  0  0  0
    1.1848    1.8779    0.7706 H   0  0  0  0  0  0  0  0  0  0  0  0
    3.6110    1.6387    0.9762 H   0  0  0  0  0  0  0  0  0  0  0  0
  1  2  1  0
  2  3  1  0
  3  4  1  0
  4  5  2  0
  5  6  1  0
  6  7  1  0
  7  8  1  0
  8  9  1  0
  9 10  2  0
 10 11  1  0
 11 12  2  0
 12 13  1  0
 13 14  2  0
 14 15  1  0
  6 16  2  0
 16 17  1  0
 14  9  1  0
 17  3  2  0
  1 18  1  0
  1 19  1  0
  1 20  1  0
  4 21  1  0
  5 22  1  0
  7 23  1  0
  7 24  1  0
  8 25  1  0
  8 26  1  0
 10 27  1  0
 11 28  1  0
 12 29  1  0
 13 30  1  0
 16 31  1  0
 17 32  1  0
M  RAD  1  15   3
M  END
$$$$
