
     RDKit          3D

 32 33  0  0  0  0  0  0  0  0999 V2000
    4.2928    1.8107   -1.1220 C   0  0  0  0  0  0  0  0  0  0  0  0
    3.9499    0.4423   -0.9288 O   0  0  0  0  0  0  0  0  0  0  0  0
    2.8129    0.0014   -0.2357 C   0  0  0  0  0  0  0  0  0  0  0  0
    1.8899    0.8920    0.3453 C   0  0  0  0  0  0  0  0  0  0  0  0
    0.7707    0.4027    1.0248 C   0  0  0  0  0  0  0  0  0  0  0  0
    0.5580   -0.9801    1.1386 C   0  0  0  0  0  0  0  0  0  0  0  0
   -0.6768   -1.5077    1.8241 C   0  0  0  0  0  0  0  0  0  0  0  0
   -1.7794   -1.8637    0.8167 C   0  0  0  0  0  0  0  0  0  0  0  0
   -2.2695   -0.6474    0.0646 C   0  0  0  0  0  0  0  0  0  0  0  0
   -1.7426   -0.3601   -1.2073 C   0  0  0  0  0  0  0  0  0  0  0  0
   -2.1480    0.7836   -1.8998 C   0  0  0  0  0  0  0  0  0  0  0  0
   -3.0796    1.6534   -1.3300 C   0  0  0  0  0  0  0  0  0  0  0  0
   -3.6062    1.3833   -0.0647 C   0  0  0  0  0  0  0  0  0  0  0  0
   -3.2044    0.2408    0.6379 C   0  0  0  0  0  0  0  0  0  0  0  0
   -3.7478   -0.0061    1.9329 N   0  0  0  0  0  1  0  0  0  0  0  0
    1.4742   -1.8664    0.5528 C   0  0  0  0  0  0  0  0  0  0  0  0
    2.5942   -1.3767   -0.1248 C   0  0  0  0  0  0  0  0  0  0  0  0
    5.2366    1.8697   -1.7016 H   0  0  0  0  0  0  0  0  0  0  0  0
    4.4462    2.3081   -0.1410 H   0  0  0  0  0  0  0  0  0  0  0  0
    3.4924    2.3280   -1.6921 H   0  0  0  0  0  0  0  0  0  0  0  0
    2.0253    1.9624    0.2735 H   0  0  0  0  0  0  0  0  0  0  0  0
    0.0635    1.1024    1.4530 H   0  0  0  0  0  0  0  0  0  0  0  0
   -0.4126   -2.4196    2.4027 H   0  0  0  0  0  0  0  0  0  0  0  0
   -1.0608   -0.7655    2.5578 H   0  0  0  0  0  0  0  0  0  0  0  0
   -2.6278   -2.3329    1.3599 H   0  0  0  0  0  0  0  0  0  0  0  0
   -1.4010   -2.6324    0.1071 H   0  0  0  0  0  0  0  0  0  0  0  0
   -1.0090   -1.0170   -1.6583 H   0  0  0  0  0  0  0  0  0  0  0  0
   -1.7361    0.9978   -2.8774 H   0  0  0  0  0  0  0  0  0  0  0  0
   -3.3915    2.5394   -1.8677 H   0  0  0  0  0  0  0  0  0  0  0  0
   -4.3247    2.0655    0.3720 H   0  0  0  0  0  0  0  0  0  0  0  0
    1.3174   -2.9361    0.6161 H   0  0  0  0  0  0  0  0  0  0  0  0
    3.2940   -2.0718   -0.5713 H   0  0  0  0  0  0  0  0  0  0  0  0
  1  2  1  0
  2  3  1  0
  3  4  1  0
  4  5  2  0
  5  6  1  0
  6  7  1  0
  7  8  1  0
  8  9  1  0
  9 10  2  0
 10 11  1  0
 11 12  2  0
 12 13  1  0
 13 14  2  0
 14 15  1  0
  6 16  2  0
 16 17  1  0
 14  9  1  0
 17  3  2  0
  1 18  1  0
  1 19  1  0
  1 20  1  0
  4 21  1  0
  5 22  1  0
  7 23  1  0
  7 24  1  0
  8 25  1  0
  8 26  1  0
 10 27  1  0
 11 28  1  0
 12 29  1  0
 13 30  1  0
 16 31  1  0
 17 32  1  0
M  RAD  1  15   3
M  END
$$$$
