
     RDKit          3D

 32 33  0  0  0  0  0  0  0  0999 V2000
   -4.2624    1.9574    1.0725 C   0  0  0  0  0  0  0  0  0  0  0  0
   -3.8579    0.6075    1.2758 O   0  0  0  0  0  0  0  0  0  0  0  0
   -2.7704    0.0012    0.6298 C   0  0  0  0  0  0  0  0  0  0  0  0
   -2.4804   -1.3353    0.9279 C   0  0  0  0  0  0  0  0  0  0  0  0
   -1.4054   -1.9835    0.3135 C   0  0  0  0  0  0  0  0  0  0  0  0
   -0.6072   -1.3028   -0.6180 C   0  0  0  0  0  0  0  0  0  0  0  0
    0.5834   -1.9864   -1.2411 C   0  0  0  0  0  0  0  0  0  0  0  0
    1.8000   -1.9774   -0.3044 C   0  0  0  0  0  0  0  0  0  0  0  0
    2.2873   -0.5735   -0.0272 C   0  0  0  0  0  0  0  0  0  0  0  0
    1.8724    0.0856    1.1438 C   0  0  0  0  0  0  0  0  0  0  0  0
    2.2741    1.3996    1.3968 C   0  0  0  0  0  0  0  0  0  0  0  0
    3.0902    2.0701    0.4839 C   0  0  0  0  0  0  0  0  0  0  0  0
    3.5043    1.4294   -0.6862 C   0  0  0  0  0  0  0  0  0  0  0  0
    3.1051    0.1135   -0.9495 C   0  0  0  0  0  0  0  0  0  0  0  0
    3.5316   -0.5141   -2.1568 N   0  0  0  0  0  1  0  0  0  0  0  0
   -0.8913    0.0392   -0.9155 C   0  0  0  0  0  0  0  0  0  0  0  0
   -1.9653    0.6877   -0.2993 C   0  0  0  0  0  0  0  0  0  0  0  0
   -3.4424    2.6491    1.3596 H   0  0  0  0  0  0  0  0  0  0  0  0
   -4.5422    2.1162    0.0096 H   0  0  0  0  0  0  0  0  0  0  0  0
   -5.1461    2.1708    1.7081 H   0  0  0  0  0  0  0  0  0  0  0  0
   -3.0890   -1.8728    1.6440 H   0  0  0  0  0  0  0  0  0  0  0  0
   -1.1909   -3.0142    0.5678 H   0  0  0  0  0  0  0  0  0  0  0  0
    0.8471   -1.5031   -2.2072 H   0  0  0  0  0  0  0  0  0  0  0  0
    0.3191   -3.0407   -1.4744 H   0  0  0  0  0  0  0  0  0  0  0  0
    1.5411   -2.4932    0.6466 H   0  0  0  0  0  0  0  0  0  0  0  0
    2.6173   -2.5710   -0.7675 H   0  0  0  0  0  0  0  0  0  0  0  0
    1.2283   -0.4151    1.8563 H   0  0  0  0  0  0  0  0  0  0  0  0
    1.9488    1.8998    2.2998 H   0  0  0  0  0  0  0  0  0  0  0  0
    3.3993    3.0884    0.6813 H   0  0  0  0  0  0  0  0  0  0  0  0
    4.1333    1.9583   -1.3913 H   0  0  0  0  0  0  0  0  0  0  0  0
   -0.2737    0.5871   -1.6167 H   0  0  0  0  0  0  0  0  0  0  0  0
   -2.1577    1.7223   -0.5482 H   0  0  0  0  0  0  0  0  0  0  0  0
  1  2  1  0
  2  3  1  0
  3  4  1  0
  4  5  2  0
  5  6  1  0
  6  7  1  0
  7  8  1  0
  8  9  1  0
  9 10  2  0
 10 11  1  0
 11 12  2  0
 12 13  1  0
 13 14  2  0
 14 15  1  0
  6 16  2  0
 16 17  1  0
 14  9  1  0
 17  3  2  0
  1 18  1  0
  1 19  1  0
  1 20  1  0
  4 21  1  0
  5 22  1  0
  7 23  1  0
  7 24  1  0
  8 25  1  0
  8 26  1  0
 10 27  1  0
 11 28  1  0
 12 29  1  0
 13 30  1  0
 16 31  1  0
 17 32  1  0
M  RAD  1  15   3
M  END
$$$$
