
     RDKit          3D

 32 33  0  0  0  0  0  0  0  0999 V2000
    4.1812    2.3400   -0.1066 C   0  0  0  0  0  0  0  0  0  0  0  0
    3.8392    1.1392   -0.7912 O   0  0  0  0  0  0  0  0  0  0  0  0
    2.7731    0.3005   -0.4339 C   0  0  0  0  0  0  0  0  0  0  0  0
    2.5460   -0.8493   -1.1992 C   0  0  0  0  0  0  0  0  0  0  0  0
    1.4944   -1.7152   -0.8862 C   0  0  0  0  0  0  0  0  0  0  0  0
    0.6572   -1.4456    0.2067 C   0  0  0  0  0  0  0  0  0  0  0  0
   -0.5083   -2.3519    0.5122 C   0  0  0  0  0  0  0  0  0  0  0  0
   -1.7142   -2.0526   -0.3898 C   0  0  0  0  0  0  0  0  0  0  0  0
   -2.2606   -0.6624   -0.1572 C   0  0  0  0  0  0  0  0  0  0  0  0
   -1.8632    0.3889   -1.0026 C   0  0  0  0  0  0  0  0  0  0  0  0
   -2.3204    1.6898   -0.7774 C   0  0  0  0  0  0  0  0  0  0  0  0
   -3.1749    1.9558    0.2940 C   0  0  0  0  0  0  0  0  0  0  0  0
   -3.5722    0.9220    1.1452 C   0  0  0  0  0  0  0  0  0  0  0  0
   -3.1177   -0.3845    0.9289 C   0  0  0  0  0  0  0  0  0  0  0  0
   -3.5284   -1.4199    1.8192 N   0  0  0  0  0  1  0  0  0  0  0  0
    0.8781   -0.2906    0.9732 C   0  0  0  0  0  0  0  0  0  0  0  0
    1.9287    0.5761    0.6586 C   0  0  0  0  0  0  0  0  0  0  0  0
    5.0611    2.8008   -0.6004 H   0  0  0  0  0  0  0  0  0  0  0  0
    3.3343    3.0571   -0.1474 H   0  0  0  0  0  0  0  0  0  0  0  0
    4.4425    2.1163    0.9493 H   0  0  0  0  0  0  0  0  0  0  0  0
    3.1853   -1.0699   -2.0446 H   0  0  0  0  0  0  0  0  0  0  0  0
    1.3287   -2.5927   -1.4988 H   0  0  0  0  0  0  0  0  0  0  0  0
   -0.8033   -2.2587    1.5803 H   0  0  0  0  0  0  0  0  0  0  0  0
   -0.1998   -3.4089    0.3583 H   0  0  0  0  0  0  0  0  0  0  0  0
   -2.5092   -2.8035   -0.1918 H   0  0  0  0  0  0  0  0  0  0  0  0
   -1.4228   -2.1818   -1.4556 H   0  0  0  0  0  0  0  0  0  0  0  0
   -1.1902    0.2026   -1.8305 H   0  0  0  0  0  0  0  0  0  0  0  0
   -2.0082    2.4932   -1.4321 H   0  0  0  0  0  0  0  0  0  0  0  0
   -3.5269    2.9645    0.4673 H   0  0  0  0  0  0  0  0  0  0  0  0
   -4.2314    1.1377    1.9768 H   0  0  0  0  0  0  0  0  0  0  0  0
    0.2296   -0.0554    1.8082 H   0  0  0  0  0  0  0  0  0  0  0  0
    2.0723    1.4584    1.2671 H   0  0  0  0  0  0  0  0  0  0  0  0
  1  2  1  0
  2  3  1  0
  3  4  1  0
  4  5  2  0
  5  6  1  0
  6  7  1  0
  7  8  1  0
  8  9  1  0
  9 10  2  0
 10 11  1  0
 11 12  2  0
 12 13  1  0
 13 14  2  0
 14 15  1  0
  6 16  2  0
 16 17  1  0
 14  9  1  0
 17  3  2  0
  1 18  1  0
  1 19  1  0
  1 20  1  0
  4 21  1  0
  5 22  1  0
  7 23  1  0
  7 24  1  0
  8 25  1  0
  8 26  1  0
 10 27  1  0
 11 28  1  0
 12 29  1  0
 13 30  1  0
 16 31  1  0
 17 32  1  0
M  RAD  1  15   3
M  END
$$$$
