
     RDKit          3D

 32 33  0  0  0  0  0  0  0  0999 V2000
    4.2889    1.2567    1.7306 C   0  0  0  0  0  0  0  0  0  0  0  0
    3.9722    0.1206    0.9328 O   0  0  0  0  0  0  0  0  0  0  0  0
    2.8192    0.0052    0.1422 C   0  0  0  0  0  0  0  0  0  0  0  0
    1.8520    1.0254    0.0637 C   0  0  0  0  0  0  0  0  0  0  0  0
    0.7186    0.8615   -0.7377 C   0  0  0  0  0  0  0  0  0  0  0  0
    0.5355   -0.3188   -1.4752 C   0  0  0  0  0  0  0  0  0  0  0  0
   -0.7127   -0.5185   -2.2968 C   0  0  0  0  0  0  0  0  0  0  0  0
   -1.7647   -1.3448   -1.5431 C   0  0  0  0  0  0  0  0  0  0  0  0
   -2.2537   -0.6361   -0.3007 C   0  0  0  0  0  0  0  0  0  0  0  0
   -1.6829   -0.9493    0.9459 C   0  0  0  0  0  0  0  0  0  0  0  0
   -2.0879   -0.2737    2.0998 C   0  0  0  0  0  0  0  0  0  0  0  0
   -3.0629    0.7225    2.0219 C   0  0  0  0  0  0  0  0  0  0  0  0
   -3.6334    1.0479    0.7891 C   0  0  0  0  0  0  0  0  0  0  0  0
   -3.2325    0.3780   -0.3731 C   0  0  0  0  0  0  0  0  0  0  0  0
   -3.8216    0.7371   -1.6210 N   0  0  0  0  0  1  0  0  0  0  0  0
    1.4961   -1.3376   -1.3903 C   0  0  0  0  0  0  0  0  0  0  0  0
    2.6302   -1.1725   -0.5903 C   0  0  0  0  0  0  0  0  0  0  0  0
    5.2537    1.0786    2.2482 H   0  0  0  0  0  0  0  0  0  0  0  0
    3.4998    1.4183    2.4951 H   0  0  0  0  0  0  0  0  0  0  0  0
    4.3904    2.1575    1.0891 H   0  0  0  0  0  0  0  0  0  0  0  0
    1.9638    1.9453    0.6209 H   0  0  0  0  0  0  0  0  0  0  0  0
   -0.0223    1.6507   -0.7747 H   0  0  0  0  0  0  0  0  0  0  0  0
   -1.1442    0.4629   -2.5925 H   0  0  0  0  0  0  0  0  0  0  0  0
   -0.4498   -1.0472   -3.2388 H   0  0  0  0  0  0  0  0  0  0  0  0
   -1.3391   -2.3386   -1.2810 H   0  0  0  0  0  0  0  0  0  0  0  0
   -2.6225   -1.5431   -2.2212 H   0  0  0  0  0  0  0  0  0  0  0  0
   -0.9157   -1.7101    1.0224 H   0  0  0  0  0  0  0  0  0  0  0  0
   -1.6421   -0.5201    3.0549 H   0  0  0  0  0  0  0  0  0  0  0  0
   -3.3743    1.2454    2.9169 H   0  0  0  0  0  0  0  0  0  0  0  0
   -4.3855    1.8251    0.7367 H   0  0  0  0  0  0  0  0  0  0  0  0
    1.3632   -2.2618   -1.9391 H   0  0  0  0  0  0  0  0  0  0  0  0
    3.3643   -1.9663   -0.5348 H   0  0  0  0  0  0  0  0  0  0  0  0
  1  2  1  0
  2  3  1  0
  3  4  1  0
  4  5  2  0
  5  6  1  0
  6  7  1  0
  7  8  1  0
  8  9  1  0
  9 10  2  0
 10 11  1  0
 11 12  2  0
 12 13  1  0
 13 14  2  0
 14 15  1  0
  6 16  2  0
 16 17  1  0
 14  9  1  0
 17  3  2  0
  1 18  1  0
  1 19  1  0
  1 20  1  0
  4 21  1  0
  5 22  1  0
  7 23  1  0
  7 24  1  0
  8 25  1  0
  8 26  1  0
 10 27  1  0
 11 28  1  0
 12 29  1  0
 13 30  1  0
 16 31  1  0
 17 32  1  0
M  RAD  1  15   3
M  END
$$$$
