
     RDKit          3D

 32 33  0  0  0  0  0  0  0  0999 V2000
    6.0309    0.3408   -0.1266 C   0  0  0  0  0  0  0  0  0  0  0  0
    5.0785   -0.7166   -0.1740 O   0  0  0  0  0  0  0  0  0  0  0  0
    3.7071   -0.5588    0.0757 C   0  0  0  0  0  0  0  0  0  0  0  0
    3.1369    0.6870    0.4009 C   0  0  0  0  0  0  0  0  0  0  0  0
    1.7636    0.7922    0.6415 C   0  0  0  0  0  0  0  0  0  0  0  0
    0.9422   -0.3434    0.5715 C   0  0  0  0  0  0  0  0  0  0  0  0
   -0.5412   -0.2231    0.7954 C   0  0  0  0  0  0  0  0  0  0  0  0
   -1.2621    0.0762   -0.5224 C   0  0  0  0  0  0  0  0  0  0  0  0
   -2.7500    0.1930   -0.2996 C   0  0  0  0  0  0  0  0  0  0  0  0
   -3.3112    1.4516   -0.0209 C   0  0  0  0  0  0  0  0  0  0  0  0
   -4.6822    1.5780    0.2183 C   0  0  0  0  0  0  0  0  0  0  0  0
   -5.5045    0.4498    0.1921 C   0  0  0  0  0  0  0  0  0  0  0  0
   -4.9571   -0.8086   -0.0687 C   0  0  0  0  0  0  0  0  0  0  0  0
   -3.5846   -0.9453   -0.3094 C   0  0  0  0  0  0  0  0  0  0  0  0
   -3.0482   -2.2431   -0.5574 N   0  0  0  0  0  1  0  0  0  0  0  0
    1.5091   -1.5817    0.2340 C   0  0  0  0  0  0  0  0  0  0  0  0
    2.8820   -1.6865   -0.0064 C   0  0  0  0  0  0  0  0  0  0  0  0
    7.0356   -0.0653   -0.3632 H   0  0  0  0  0  0  0  0  0  0  0  0
    6.0575    0.7854    0.8907 H   0  0  0  0  0  0  0  0  0  0  0  0
    5.7757    1.1183   -0.8773 H   0  0  0  0  0  0  0  0  0  0  0  0
    3.7444    1.5792    0.4669 H   0  0  0  0  0  0  0  0  0  0  0  0
    1.3398    1.7598    0.8810 H   0  0  0  0  0  0  0  0  0  0  0  0
   -0.7470    0.5890    1.5275 H   0  0  0  0  0  0  0  0  0  0  0  0
   -0.9325   -1.1682    1.2328 H   0  0  0  0  0  0  0  0  0  0  0  0
   -0.8695    1.0238   -0.9534 H   0  0  0  0  0  0  0  0  0  0  0  0
   -1.0485   -0.7261   -1.2620 H   0  0  0  0  0  0  0  0  0  0  0  0
   -2.6860    2.3354    0.0125 H   0  0  0  0  0  0  0  0  0  0  0  0
   -5.1070    2.5513    0.4277 H   0  0  0  0  0  0  0  0  0  0  0  0
   -6.5659    0.5499    0.3789 H   0  0  0  0  0  0  0  0  0  0  0  0
   -5.6006   -1.6795   -0.0796 H   0  0  0  0  0  0  0  0  0  0  0  0
    0.8876   -2.4653    0.1555 H   0  0  0  0  0  0  0  0  0  0  0  0
    3.3072   -2.6490   -0.2614 H   0  0  0  0  0  0  0  0  0  0  0  0
  1  2  1  0
  2  3  1  0
  3  4  1  0
  4  5  2  0
  5  6  1  0
  6  7  1  0
  7  8  1  0
  8  9  1  0
  9 10  2  0
 10 11  1  0
 11 12  2  0
 12 13  1  0
 13 14  2  0
 14 15  1  0
  6 16  2  0
 16 17  1  0
 14  9  1  0
 17  3  2  0
  1 18  1  0
  1 19  1  0
  1 20  1  0
  4 21  1  0
  5 22  1  0
  7 23  1  0
  7 24  1  0
  8 25  1  0
  8 26  1  0
 10 27  1  0
 11 28  1  0
 12 29  1  0
 13 30  1  0
 16 31  1  0
 17 32  1  0
M  RAD  1  15   3
M  END
$$$$
