
     RDKit          3D

 32 33  0  0  0  0  0  0  0  0999 V2000
    4.3904    1.8904    0.5678 C   0  0  0  0  0  0  0  0  0  0  0  0
    3.9864    0.5646    0.8942 O   0  0  0  0  0  0  0  0  0  0  0  0
    2.8155   -0.0453    0.4204 C   0  0  0  0  0  0  0  0  0  0  0  0
    2.5372   -1.3558    0.8259 C   0  0  0  0  0  0  0  0  0  0  0  0
    1.3816   -2.0062    0.3844 C   0  0  0  0  0  0  0  0  0  0  0  0
    0.4889   -1.3544   -0.4795 C   0  0  0  0  0  0  0  0  0  0  0  0
   -0.7831   -2.0375   -0.9136 C   0  0  0  0  0  0  0  0  0  0  0  0
   -1.8746   -1.9458    0.1624 C   0  0  0  0  0  0  0  0  0  0  0  0
   -2.2953   -0.5165    0.4179 C   0  0  0  0  0  0  0  0  0  0  0  0
   -1.7259    0.1923    1.4909 C   0  0  0  0  0  0  0  0  0  0  0  0
   -2.0665    1.5283    1.7171 C   0  0  0  0  0  0  0  0  0  0  0  0
   -2.9749    2.1714    0.8743 C   0  0  0  0  0  0  0  0  0  0  0  0
   -3.5430    1.4809   -0.1990 C   0  0  0  0  0  0  0  0  0  0  0  0
   -3.2063    0.1426   -0.4349 C   0  0  0  0  0  0  0  0  0  0  0  0
   -3.7909   -0.5363   -1.5442 N   0  0  0  0  0  1  0  0  0  0  0  0
    0.7615   -0.0382   -0.8840 C   0  0  0  0  0  0  0  0  0  0  0  0
    1.9163    0.6125   -0.4406 C   0  0  0  0  0  0  0  0  0  0  0  0
    4.5403    1.9850   -0.5285 H   0  0  0  0  0  0  0  0  0  0  0  0
    5.3498    2.1131    1.0781 H   0  0  0  0  0  0  0  0  0  0  0  0
    3.6263    2.6183    0.9136 H   0  0  0  0  0  0  0  0  0  0  0  0
    3.2182   -1.8709    1.4915 H   0  0  0  0  0  0  0  0  0  0  0  0
    1.1791   -3.0158    0.7202 H   0  0  0  0  0  0  0  0  0  0  0  0
   -1.1539   -1.5991   -1.8660 H   0  0  0  0  0  0  0  0  0  0  0  0
   -0.5712   -3.1095   -1.1181 H   0  0  0  0  0  0  0  0  0  0  0  0
   -2.7547   -2.5407   -0.1637 H   0  0  0  0  0  0  0  0  0  0  0  0
   -1.5112   -2.4173    1.1021 H   0  0  0  0  0  0  0  0  0  0  0  0
   -1.0094   -0.2872    2.1465 H   0  0  0  0  0  0  0  0  0  0  0  0
   -1.6223    2.0667    2.5443 H   0  0  0  0  0  0  0  0  0  0  0  0
   -3.2365    3.2067    1.0506 H   0  0  0  0  0  0  0  0  0  0  0  0
   -4.2431    1.9886   -0.8507 H   0  0  0  0  0  0  0  0  0  0  0  0
    0.0737    0.4882   -1.5343 H   0  0  0  0  0  0  0  0  0  0  0  0
    2.0977    1.6269   -0.7686 H   0  0  0  0  0  0  0  0  0  0  0  0
  1  2  1  0
  2  3  1  0
  3  4  1  0
  4  5  2  0
  5  6  1  0
  6  7  1  0
  7  8  1  0
  8  9  1  0
  9 10  2  0
 10 11  1  0
 11 12  2  0
 12 13  1  0
 13 14  2  0
 14 15  1  0
  6 16  2  0
 16 17  1  0
 14  9  1  0
 17  3  2  0
  1 18  1  0
  1 19  1  0
  1 20  1  0
  4 21  1  0
  5 22  1  0
  7 23  1  0
  7 24  1  0
  8 25  1  0
  8 26  1  0
 10 27  1  0
 11 28  1  0
 12 29  1  0
 13 30  1  0
 16 31  1  0
 17 32  1  0
M  RAD  1  15   3
M  END
$$$$
