
     RDKit          3D

 32 33  0  0  0  0  0  0  0  0999 V2000
    4.1318    2.2409   -0.9357 C   0  0  0  0  0  0  0  0  0  0  0  0
    3.7979    1.4801    0.2206 O   0  0  0  0  0  0  0  0  0  0  0  0
    2.7564    0.5422    0.2774 C   0  0  0  0  0  0  0  0  0  0  0  0
    2.5345   -0.1332    1.4832 C   0  0  0  0  0  0  0  0  0  0  0  0
    1.5071   -1.0746    1.5919 C   0  0  0  0  0  0  0  0  0  0  0  0
    0.6894   -1.3604    0.4884 C   0  0  0  0  0  0  0  0  0  0  0  0
   -0.4512   -2.3372    0.6213 C   0  0  0  0  0  0  0  0  0  0  0  0
   -1.6826   -1.6901    1.2713 C   0  0  0  0  0  0  0  0  0  0  0  0
   -2.2503   -0.5778    0.4195 C   0  0  0  0  0  0  0  0  0  0  0  0
   -1.8923    0.7549    0.6910 C   0  0  0  0  0  0  0  0  0  0  0  0
   -2.3693    1.7938   -0.1122 C   0  0  0  0  0  0  0  0  0  0  0  0
   -3.2047    1.5142   -1.1952 C   0  0  0  0  0  0  0  0  0  0  0  0
   -3.5629    0.1944   -1.4799 C   0  0  0  0  0  0  0  0  0  0  0  0
   -3.0882   -0.8536   -0.6821 C   0  0  0  0  0  0  0  0  0  0  0  0
   -3.4589   -2.1931   -1.0009 N   0  0  0  0  0  1  0  0  0  0  0  0
    0.9051   -0.6811   -0.7209 C   0  0  0  0  0  0  0  0  0  0  0  0
    1.9314    0.2616   -0.8286 C   0  0  0  0  0  0  0  0  0  0  0  0
    3.2706    2.8731   -1.2386 H   0  0  0  0  0  0  0  0  0  0  0  0
    4.4209    1.5643   -1.7675 H   0  0  0  0  0  0  0  0  0  0  0  0
    4.9914    2.9010   -0.6996 H   0  0  0  0  0  0  0  0  0  0  0  0
    3.1589    0.0769    2.3423 H   0  0  0  0  0  0  0  0  0  0  0  0
    1.3447   -1.5767    2.5377 H   0  0  0  0  0  0  0  0  0  0  0  0
   -0.1259   -3.1964    1.2473 H   0  0  0  0  0  0  0  0  0  0  0  0
   -0.7241   -2.7534   -0.3732 H   0  0  0  0  0  0  0  0  0  0  0  0
   -2.4582   -2.4695    1.4321 H   0  0  0  0  0  0  0  0  0  0  0  0
   -1.4125   -1.3071    2.2802 H   0  0  0  0  0  0  0  0  0  0  0  0
   -1.2344    0.9883    1.5192 H   0  0  0  0  0  0  0  0  0  0  0  0
   -2.0874    2.8164    0.1031 H   0  0  0  0  0  0  0  0  0  0  0  0
   -3.5721    2.3205   -1.8168 H   0  0  0  0  0  0  0  0  0  0  0  0
   -4.2074   -0.0141   -2.3247 H   0  0  0  0  0  0  0  0  0  0  0  0
    0.2709   -0.8737   -1.5776 H   0  0  0  0  0  0  0  0  0  0  0  0
    2.0715    0.7693   -1.7731 H   0  0  0  0  0  0  0  0  0  0  0  0
  1  2  1  0
  2  3  1  0
  3  4  1  0
  4  5  2  0
  5  6  1  0
  6  7  1  0
  7  8  1  0
  8  9  1  0
  9 10  2  0
 10 11  1  0
 11 12  2  0
 12 13  1  0
 13 14  2  0
 14 15  1  0
  6 16  2  0
 16 17  1  0
 14  9  1  0
 17  3  2  0
  1 18  1  0
  1 19  1  0
  1 20  1  0
  4 21  1  0
  5 22  1  0
  7 23  1  0
  7 24  1  0
  8 25  1  0
  8 26  1  0
 10 27  1  0
 11 28  1  0
 12 29  1  0
 13 30  1  0
 16 31  1  0
 17 32  1  0
M  RAD  1  15   3
M  END
$$$$
