
     RDKit          3D

 32 33  0  0  0  0  0  0  0  0999 V2000
   -6.0362   -0.2990   -0.1449 C   0  0  0  0  0  0  0  0  0  0  0  0
   -5.0791    0.4764    0.5694 O   0  0  0  0  0  0  0  0  0  0  0  0
   -3.6964    0.2403    0.5512 C   0  0  0  0  0  0  0  0  0  0  0  0
   -2.8678    1.0830    1.3012 C   0  0  0  0  0  0  0  0  0  0  0  0
   -1.4837    0.8891    1.3164 C   0  0  0  0  0  0  0  0  0  0  0  0
   -0.9082   -0.1618    0.5862 C   0  0  0  0  0  0  0  0  0  0  0  0
    0.5850   -0.3493    0.5738 C   0  0  0  0  0  0  0  0  0  0  0  0
    1.2206    0.4660   -0.5564 C   0  0  0  0  0  0  0  0  0  0  0  0
    2.7182    0.2817   -0.5675 C   0  0  0  0  0  0  0  0  0  0  0  0
    3.2840   -0.7387   -1.3519 C   0  0  0  0  0  0  0  0  0  0  0  0
    4.6660   -0.9463   -1.3536 C   0  0  0  0  0  0  0  0  0  0  0  0
    5.4953   -0.1456   -0.5659 C   0  0  0  0  0  0  0  0  0  0  0  0
    4.9444    0.8619    0.2296 C   0  0  0  0  0  0  0  0  0  0  0  0
    3.5610    1.0774    0.2381 C   0  0  0  0  0  0  0  0  0  0  0  0
    3.0221    2.1019    1.0710 N   0  0  0  0  0  1  0  0  0  0  0  0
   -1.7339   -1.0006   -0.1779 C   0  0  0  0  0  0  0  0  0  0  0  0
   -3.1184   -0.8063   -0.1928 C   0  0  0  0  0  0  0  0  0  0  0  0
   -7.0499    0.1068    0.0502 H   0  0  0  0  0  0  0  0  0  0  0  0
   -5.8349   -0.2437   -1.2356 H   0  0  0  0  0  0  0  0  0  0  0  0
   -6.0040   -1.3550    0.1970 H   0  0  0  0  0  0  0  0  0  0  0  0
   -3.2993    1.8950    1.8728 H   0  0  0  0  0  0  0  0  0  0  0  0
   -0.8603    1.5590    1.8959 H   0  0  0  0  0  0  0  0  0  0  0  0
    1.0110   -0.0335    1.5517 H   0  0  0  0  0  0  0  0  0  0  0  0
    0.8283   -1.4267    0.4406 H   0  0  0  0  0  0  0  0  0  0  0  0
    0.7934    0.1439   -1.5321 H   0  0  0  0  0  0  0  0  0  0  0  0
    0.9690    1.5423   -0.4352 H   0  0  0  0  0  0  0  0  0  0  0  0
    2.6541   -1.3749   -1.9615 H   0  0  0  0  0  0  0  0  0  0  0  0
    5.0939   -1.7312   -1.9639 H   0  0  0  0  0  0  0  0  0  0  0  0
    6.5653   -0.3090   -0.5678 H   0  0  0  0  0  0  0  0  0  0  0  0
    5.5939    1.4734    0.8435 H   0  0  0  0  0  0  0  0  0  0  0  0
   -1.3049   -1.8044   -0.7635 H   0  0  0  0  0  0  0  0  0  0  0  0
   -3.7287   -1.4719   -0.7877 H   0  0  0  0  0  0  0  0  0  0  0  0
  1  2  1  0
  2  3  1  0
  3  4  1  0
  4  5  2  0
  5  6  1  0
  6  7  1  0
  7  8  1  0
  8  9  1  0
  9 10  2  0
 10 11  1  0
 11 12  2  0
 12 13  1  0
 13 14  2  0
 14 15  1  0
  6 16  2  0
 16 17  1  0
 14  9  1  0
 17  3  2  0
  1 18  1  0
  1 19  1  0
  1 20  1  0
  4 21  1  0
  5 22  1  0
  7 23  1  0
  7 24  1  0
  8 25  1  0
  8 26  1  0
 10 27  1  0
 11 28  1  0
 12 29  1  0
 13 30  1  0
 16 31  1  0
 17 32  1  0
M  RAD  1  15   3
M  END
$$$$
