
     RDKit          3D

 32 33  0  0  0  0  0  0  0  0999 V2000
    6.0088    0.2398    0.7152 C   0  0  0  0  0  0  0  0  0  0  0  0
    5.1160   -0.2284   -0.2904 O   0  0  0  0  0  0  0  0  0  0  0  0
    3.7269   -0.3365   -0.1278 C   0  0  0  0  0  0  0  0  0  0  0  0
    2.9665   -0.8125   -1.2023 C   0  0  0  0  0  0  0  0  0  0  0  0
    1.5790   -0.9391   -1.0903 C   0  0  0  0  0  0  0  0  0  0  0  0
    0.9318   -0.5993    0.1073 C   0  0  0  0  0  0  0  0  0  0  0  0
   -0.5658   -0.7015    0.2166 C   0  0  0  0  0  0  0  0  0  0  0  0
   -1.2288    0.6040   -0.2329 C   0  0  0  0  0  0  0  0  0  0  0  0
   -2.7306    0.5011   -0.1274 C   0  0  0  0  0  0  0  0  0  0  0  0
   -3.3701    0.9018    1.0588 C   0  0  0  0  0  0  0  0  0  0  0  0
   -4.7567    0.7870    1.1890 C   0  0  0  0  0  0  0  0  0  0  0  0
   -5.5172    0.2623    0.1421 C   0  0  0  0  0  0  0  0  0  0  0  0
   -4.8925   -0.1536   -1.0361 C   0  0  0  0  0  0  0  0  0  0  0  0
   -3.5038   -0.0427   -1.1758 C   0  0  0  0  0  0  0  0  0  0  0  0
   -2.8887   -0.4890   -2.3824 N   0  0  0  0  0  1  0  0  0  0  0  0
    1.6887   -0.1087    1.1823 C   0  0  0  0  0  0  0  0  0  0  0  0
    3.0765    0.0177    1.0699 C   0  0  0  0  0  0  0  0  0  0  0  0
    5.7550    1.2842    0.9949 H   0  0  0  0  0  0  0  0  0  0  0  0
    5.9574   -0.4186    1.6080 H   0  0  0  0  0  0  0  0  0  0  0  0
    7.0444    0.2201    0.3183 H   0  0  0  0  0  0  0  0  0  0  0  0
    3.4539   -1.0827   -2.1306 H   0  0  0  0  0  0  0  0  0  0  0  0
    1.0090   -1.3003   -1.9375 H   0  0  0  0  0  0  0  0  0  0  0  0
   -0.8524   -0.9242    1.2683 H   0  0  0  0  0  0  0  0  0  0  0  0
   -0.9310   -1.5448   -0.4103 H   0  0  0  0  0  0  0  0  0  0  0  0
   -0.8627    1.4431    0.3995 H   0  0  0  0  0  0  0  0  0  0  0  0
   -0.9344    0.8379   -1.2793 H   0  0  0  0  0  0  0  0  0  0  0  0
   -2.7939    1.3022    1.8839 H   0  0  0  0  0  0  0  0  0  0  0  0
   -5.2417    1.1020    2.1039 H   0  0  0  0  0  0  0  0  0  0  0  0
   -6.5909    0.1731    0.2457 H   0  0  0  0  0  0  0  0  0  0  0  0
   -5.4888   -0.5665   -1.8402 H   0  0  0  0  0  0  0  0  0  0  0  0
    1.2033    0.1773    2.1074 H   0  0  0  0  0  0  0  0  0  0  0  0
    3.6329    0.3945    1.9172 H   0  0  0  0  0  0  0  0  0  0  0  0
  1  2  1  0
  2  3  1  0
  3  4  1  0
  4  5  2  0
  5  6  1  0
  6  7  1  0
  7  8  1  0
  8  9  1  0
  9 10  2  0
 10 11  1  0
 11 12  2  0
 12 13  1  0
 13 14  2  0
 14 15  1  0
  6 16  2  0
 16 17  1  0
 14  9  1  0
 17  3  2  0
  1 18  1  0
  1 19  1  0
  1 20  1  0
  4 21  1  0
  5 22  1  0
  7 23  1  0
  7 24  1  0
  8 25  1  0
  8 26  1  0
 10 27  1  0
 11 28  1  0
 12 29  1  0
 13 30  1  0
 16 31  1  0
 17 32  1  0
M  RAD  1  15   3
M  END
$$$$
