
     RDKit          3D

 25 25  0  0  0  0  0  0  0  0999 V2000
    1.1980    1.4810   -1.0667 C   0  0  0  0  0  0  0  0  0  0  0  0
    1.7681    0.2861   -0.8522 C   0  0  0  0  0  0  0  0  0  0  0  0
    3.1238    0.2164   -0.2040 C   0  0  0  0  0  0  0  0  0  0  0  0
    1.0368   -0.9870   -1.2146 C   0  0  0  0  0  0  0  0  0  0  0  0
    0.2976   -1.5865   -0.0103 C   0  0  0  0  0  0  0  0  0  0  0  0
   -0.8475   -0.7089    0.4422 C   0  0  0  0  0  0  0  0  0  0  0  0
   -2.0547   -0.7311   -0.2783 C   0  0  0  0  0  0  0  0  0  0  0  0
   -3.1189    0.0933    0.0958 C   0  0  0  0  0  0  0  0  0  0  0  0
   -2.9885    0.9518    1.1888 C   0  0  0  0  0  0  0  0  0  0  0  0
   -1.7929    0.9892    1.9098 C   0  0  0  0  0  0  0  0  0  0  0  0
   -0.7207    0.1669    1.5431 C   0  0  0  0  0  0  0  0  0  0  0  0
    0.4908    0.2338    2.2921 N   0  0  0  0  0  1  0  0  0  0  0  0
    1.7106    2.3982   -0.7924 H   0  0  0  0  0  0  0  0  0  0  0  0
    0.2103    1.5568   -1.5115 H   0  0  0  0  0  0  0  0  0  0  0  0
    3.4425   -0.8375   -0.0602 H   0  0  0  0  0  0  0  0  0  0  0  0
    3.0926    0.7112    0.7898 H   0  0  0  0  0  0  0  0  0  0  0  0
    3.8731    0.7284   -0.8438 H   0  0  0  0  0  0  0  0  0  0  0  0
    0.3227   -0.8085   -2.0490 H   0  0  0  0  0  0  0  0  0  0  0  0
    1.7729   -1.7322   -1.5863 H   0  0  0  0  0  0  0  0  0  0  0  0
   -0.1049   -2.5810   -0.3024 H   0  0  0  0  0  0  0  0  0  0  0  0
    1.0146   -1.7751    0.8174 H   0  0  0  0  0  0  0  0  0  0  0  0
   -2.1692   -1.3858   -1.1335 H   0  0  0  0  0  0  0  0  0  0  0  0
   -4.0447    0.0686   -0.4643 H   0  0  0  0  0  0  0  0  0  0  0  0
   -3.8136    1.5907    1.4760 H   0  0  0  0  0  0  0  0  0  0  0  0
   -1.6988    1.6611    2.7538 H   0  0  0  0  0  0  0  0  0  0  0  0
  1  2  2  0
  2  3  1  0
  2  4  1  0
  4  5  1  0
  5  6  1  0
  6  7  2  0
  7  8  1  0
  8  9  2  0
  9 10  1  0
 10 11  2  0
 11 12  1  0
 11  6  1  0
  1 13  1  0
  1 14  1  0
  3 15  1  0
  3 16  1  0
  3 17  1  0
  4 18  1  0
  4 19  1  0
  5 20  1  0
  5 21  1  0
  7 22  1  0
  8 23  1  0
  9 24  1  0
 10 25  1  0
M  RAD  1  12   3
M  END
$$$$
