
     RDKit          3D

 25 25  0  0  0  0  0  0  0  0999 V2000
   -2.3511    1.0214    1.2445 C   0  0  0  0  0  0  0  0  0  0  0  0
   -1.9419    0.1396    0.3207 C   0  0  0  0  0  0  0  0  0  0  0  0
   -2.1508    0.4453   -1.1382 C   0  0  0  0  0  0  0  0  0  0  0  0
   -1.2758   -1.1519    0.7435 C   0  0  0  0  0  0  0  0  0  0  0  0
    0.1616   -0.9244    1.2333 C   0  0  0  0  0  0  0  0  0  0  0  0
    1.0528   -0.4061    0.1278 C   0  0  0  0  0  0  0  0  0  0  0  0
    1.2828    0.9764    0.0132 C   0  0  0  0  0  0  0  0  0  0  0  0
    2.0702    1.4795   -1.0256 C   0  0  0  0  0  0  0  0  0  0  0  0
    2.6320    0.6101   -1.9624 C   0  0  0  0  0  0  0  0  0  0  0  0
    2.4054   -0.7647   -1.8647 C   0  0  0  0  0  0  0  0  0  0  0  0
    1.6166   -1.2781   -0.8281 C   0  0  0  0  0  0  0  0  0  0  0  0
    1.3920   -2.6845   -0.7568 N   0  0  0  0  0  1  0  0  0  0  0  0
   -2.2133    0.8232    2.3032 H   0  0  0  0  0  0  0  0  0  0  0  0
   -2.8287    1.9518    0.9519 H   0  0  0  0  0  0  0  0  0  0  0  0
   -1.6394    1.3962   -1.3988 H   0  0  0  0  0  0  0  0  0  0  0  0
   -1.7358   -0.3578   -1.7825 H   0  0  0  0  0  0  0  0  0  0  0  0
   -3.2363    0.5441   -1.3504 H   0  0  0  0  0  0  0  0  0  0  0  0
   -1.8693   -1.6201    1.5589 H   0  0  0  0  0  0  0  0  0  0  0  0
   -1.2669   -1.8785   -0.0973 H   0  0  0  0  0  0  0  0  0  0  0  0
    0.1591   -0.2194    2.0935 H   0  0  0  0  0  0  0  0  0  0  0  0
    0.5674   -1.8837    1.6206 H   0  0  0  0  0  0  0  0  0  0  0  0
    0.8456    1.6660    0.7247 H   0  0  0  0  0  0  0  0  0  0  0  0
    2.2420    2.5451   -1.1062 H   0  0  0  0  0  0  0  0  0  0  0  0
    3.2408    1.0022   -2.7669 H   0  0  0  0  0  0  0  0  0  0  0  0
    2.8410   -1.4317   -2.5982 H   0  0  0  0  0  0  0  0  0  0  0  0
  1  2  2  0
  2  3  1  0
  2  4  1  0
  4  5  1  0
  5  6  1  0
  6  7  2  0
  7  8  1  0
  8  9  2  0
  9 10  1  0
 10 11  2  0
 11 12  1  0
 11  6  1  0
  1 13  1  0
  1 14  1  0
  3 15  1  0
  3 16  1  0
  3 17  1  0
  4 18  1  0
  4 19  1  0
  5 20  1  0
  5 21  1  0
  7 22  1  0
  8 23  1  0
  9 24  1  0
 10 25  1  0
M  RAD  1  12   3
M  END
$$$$
