
     RDKit          3D

 25 25  0  0  0  0  0  0  0  0999 V2000
   -2.4696   -0.1382    1.6205 C   0  0  0  0  0  0  0  0  0  0  0  0
   -1.9868   -0.0929    0.3701 C   0  0  0  0  0  0  0  0  0  0  0  0
   -2.0102    1.2085   -0.3857 C   0  0  0  0  0  0  0  0  0  0  0  0
   -1.4239   -1.3412   -0.2742 C   0  0  0  0  0  0  0  0  0  0  0  0
   -0.0471   -1.7120    0.2959 C   0  0  0  0  0  0  0  0  0  0  0  0
    0.9873   -0.6528   -0.0094 C   0  0  0  0  0  0  0  0  0  0  0  0
    1.2803    0.3283    0.9543 C   0  0  0  0  0  0  0  0  0  0  0  0
    2.2033    1.3399    0.6770 C   0  0  0  0  0  0  0  0  0  0  0  0
    2.8394    1.3859   -0.5649 C   0  0  0  0  0  0  0  0  0  0  0  0
    2.5520    0.4219   -1.5340 C   0  0  0  0  0  0  0  0  0  0  0  0
    1.6276   -0.5948   -1.2659 C   0  0  0  0  0  0  0  0  0  0  0  0
    1.3441   -1.5607   -2.2759 N   0  0  0  0  0  1  0  0  0  0  0  0
   -2.8744    0.7520    2.0928 H   0  0  0  0  0  0  0  0  0  0  0  0
   -2.4655   -1.0653    2.1858 H   0  0  0  0  0  0  0  0  0  0  0  0
   -1.5518    1.1000   -1.3909 H   0  0  0  0  0  0  0  0  0  0  0  0
   -3.0585    1.5531   -0.5097 H   0  0  0  0  0  0  0  0  0  0  0  0
   -1.4366    1.9774    0.1743 H   0  0  0  0  0  0  0  0  0  0  0  0
   -1.3424   -1.2084   -1.3744 H   0  0  0  0  0  0  0  0  0  0  0  0
   -2.1266   -2.1870   -0.1096 H   0  0  0  0  0  0  0  0  0  0  0  0
   -0.1253   -1.8743    1.3934 H   0  0  0  0  0  0  0  0  0  0  0  0
    0.2741   -2.6831   -0.1385 H   0  0  0  0  0  0  0  0  0  0  0  0
    0.7878    0.3142    1.9189 H   0  0  0  0  0  0  0  0  0  0  0  0
    2.4229    2.0911    1.4246 H   0  0  0  0  0  0  0  0  0  0  0  0
    3.5533    2.1711   -0.7781 H   0  0  0  0  0  0  0  0  0  0  0  0
    3.0464    0.4674   -2.4964 H   0  0  0  0  0  0  0  0  0  0  0  0
  1  2  2  0
  2  3  1  0
  2  4  1  0
  4  5  1  0
  5  6  1  0
  6  7  2  0
  7  8  1  0
  8  9  2  0
  9 10  1  0
 10 11  2  0
 11 12  1  0
 11  6  1  0
  1 13  1  0
  1 14  1  0
  3 15  1  0
  3 16  1  0
  3 17  1  0
  4 18  1  0
  4 19  1  0
  5 20  1  0
  5 21  1  0
  7 22  1  0
  8 23  1  0
  9 24  1  0
 10 25  1  0
M  RAD  1  12   3
M  END
$$$$
