
     RDKit          3D

 25 25  0  0  0  0  0  0  0  0999 V2000
    1.3617    0.4085   -1.6813 C   0  0  0  0  0  0  0  0  0  0  0  0
    1.9112   -0.1185   -0.5771 C   0  0  0  0  0  0  0  0  0  0  0  0
    3.0889    0.5637    0.0637 C   0  0  0  0  0  0  0  0  0  0  0  0
    1.3251   -1.3634    0.0502 C   0  0  0  0  0  0  0  0  0  0  0  0
    0.3566   -1.0283    1.1930 C   0  0  0  0  0  0  0  0  0  0  0  0
   -0.8910   -0.3376    0.6904 C   0  0  0  0  0  0  0  0  0  0  0  0
   -1.9046   -1.1047    0.0896 C   0  0  0  0  0  0  0  0  0  0  0  0
   -3.0540   -0.4906   -0.4144 C   0  0  0  0  0  0  0  0  0  0  0  0
   -3.2021    0.8948   -0.3290 C   0  0  0  0  0  0  0  0  0  0  0  0
   -2.2004    1.6701    0.2594 C   0  0  0  0  0  0  0  0  0  0  0  0
   -1.0449    1.0643    0.7677 C   0  0  0  0  0  0  0  0  0  0  0  0
   -0.0350    1.8825    1.3540 N   0  0  0  0  0  1  0  0  0  0  0  0
    1.7672    1.3123   -2.1264 H   0  0  0  0  0  0  0  0  0  0  0  0
    0.4966   -0.0520   -2.1490 H   0  0  0  0  0  0  0  0  0  0  0  0
    2.8186    1.6056    0.3369 H   0  0  0  0  0  0  0  0  0  0  0  0
    3.9439    0.5818   -0.6447 H   0  0  0  0  0  0  0  0  0  0  0  0
    3.4044    0.0310    0.9854 H   0  0  0  0  0  0  0  0  0  0  0  0
    0.8101   -1.9861   -0.7147 H   0  0  0  0  0  0  0  0  0  0  0  0
    2.1515   -1.9858    0.4561 H   0  0  0  0  0  0  0  0  0  0  0  0
    0.0652   -1.9751    1.6978 H   0  0  0  0  0  0  0  0  0  0  0  0
    0.8763   -0.4166    1.9614 H   0  0  0  0  0  0  0  0  0  0  0  0
   -1.8016   -2.1799    0.0084 H   0  0  0  0  0  0  0  0  0  0  0  0
   -3.8294   -1.0895   -0.8743 H   0  0  0  0  0  0  0  0  0  0  0  0
   -4.0926    1.3687   -0.7213 H   0  0  0  0  0  0  0  0  0  0  0  0
   -2.3215    2.7446    0.3179 H   0  0  0  0  0  0  0  0  0  0  0  0
  1  2  2  0
  2  3  1  0
  2  4  1  0
  4  5  1  0
  5  6  1  0
  6  7  2  0
  7  8  1  0
  8  9  2  0
  9 10  1  0
 10 11  2  0
 11 12  1  0
 11  6  1  0
  1 13  1  0
  1 14  1  0
  3 15  1  0
  3 16  1  0
  3 17  1  0
  4 18  1  0
  4 19  1  0
  5 20  1  0
  5 21  1  0
  7 22  1  0
  8 23  1  0
  9 24  1  0
 10 25  1  0
M  RAD  1  12   3
M  END
$$$$
