
     RDKit          3D

 25 25  0  0  0  0  0  0  0  0999 V2000
   -2.9111    0.2325    0.4771 C   0  0  0  0  0  0  0  0  0  0  0  0
   -1.9632    0.1083   -0.4634 C   0  0  0  0  0  0  0  0  0  0  0  0
   -1.5273    1.3219   -1.2398 C   0  0  0  0  0  0  0  0  0  0  0  0
   -1.3383   -1.2418   -0.7407 C   0  0  0  0  0  0  0  0  0  0  0  0
   -0.3622   -1.6625    0.3675 C   0  0  0  0  0  0  0  0  0  0  0  0
    0.8234   -0.7286    0.4514 C   0  0  0  0  0  0  0  0  0  0  0  0
    0.8152    0.3201    1.3882 C   0  0  0  0  0  0  0  0  0  0  0  0
    1.8830    1.2187    1.4545 C   0  0  0  0  0  0  0  0  0  0  0  0
    2.9667    1.0836    0.5848 C   0  0  0  0  0  0  0  0  0  0  0  0
    2.9842    0.0509   -0.3556 C   0  0  0  0  0  0  0  0  0  0  0  0
    1.9183   -0.8537   -0.4305 C   0  0  0  0  0  0  0  0  0  0  0  0
    1.9556   -1.8927   -1.4064 N   0  0  0  0  0  1  0  0  0  0  0  0
   -3.2439   -0.6282    1.0494 H   0  0  0  0  0  0  0  0  0  0  0  0
   -3.3650    1.1969    0.6851 H   0  0  0  0  0  0  0  0  0  0  0  0
   -2.3883    1.7361   -1.8057 H   0  0  0  0  0  0  0  0  0  0  0  0
   -1.1429    2.0953   -0.5415 H   0  0  0  0  0  0  0  0  0  0  0  0
   -0.7185    1.0726   -1.9581 H   0  0  0  0  0  0  0  0  0  0  0  0
   -2.1413   -2.0058   -0.8289 H   0  0  0  0  0  0  0  0  0  0  0  0
   -0.8049   -1.2309   -1.7155 H   0  0  0  0  0  0  0  0  0  0  0  0
   -0.8950   -1.7032    1.3430 H   0  0  0  0  0  0  0  0  0  0  0  0
   -0.0090   -2.6964    0.1645 H   0  0  0  0  0  0  0  0  0  0  0  0
   -0.0226    0.4463    2.0630 H   0  0  0  0  0  0  0  0  0  0  0  0
    1.8683    2.0230    2.1786 H   0  0  0  0  0  0  0  0  0  0  0  0
    3.7923    1.7816    0.6372 H   0  0  0  0  0  0  0  0  0  0  0  0
    3.8265   -0.0440   -1.0295 H   0  0  0  0  0  0  0  0  0  0  0  0
  1  2  2  0
  2  3  1  0
  2  4  1  0
  4  5  1  0
  5  6  1  0
  6  7  2  0
  7  8  1  0
  8  9  2  0
  9 10  1  0
 10 11  2  0
 11 12  1  0
 11  6  1  0
  1 13  1  0
  1 14  1  0
  3 15  1  0
  3 16  1  0
  3 17  1  0
  4 18  1  0
  4 19  1  0
  5 20  1  0
  5 21  1  0
  7 22  1  0
  8 23  1  0
  9 24  1  0
 10 25  1  0
M  RAD  1  12   3
M  END
$$$$
