
     RDKit          3D

 25 25  0  0  0  0  0  0  0  0999 V2000
   -2.8865    0.3374   -0.6477 C   0  0  0  0  0  0  0  0  0  0  0  0
   -1.9796    0.0845    0.3073 C   0  0  0  0  0  0  0  0  0  0  0  0
   -1.5606    1.1880    1.2412 C   0  0  0  0  0  0  0  0  0  0  0  0
   -1.3836   -1.3000    0.4435 C   0  0  0  0  0  0  0  0  0  0  0  0
   -0.3683   -1.6012   -0.6684 C   0  0  0  0  0  0  0  0  0  0  0  0
    0.8315   -0.6848   -0.5923 C   0  0  0  0  0  0  0  0  0  0  0  0
    0.8748    0.4689   -1.3949 C   0  0  0  0  0  0  0  0  0  0  0  0
    1.9557    1.3503   -1.3101 C   0  0  0  0  0  0  0  0  0  0  0  0
    3.0011    1.0926   -0.4214 C   0  0  0  0  0  0  0  0  0  0  0  0
    2.9670   -0.0459    0.3872 C   0  0  0  0  0  0  0  0  0  0  0  0
    1.8875   -0.9342    0.3103 C   0  0  0  0  0  0  0  0  0  0  0  0
    1.8718   -2.0837    1.1540 N   0  0  0  0  0  1  0  0  0  0  0  0
   -3.3192    1.3277   -0.7552 H   0  0  0  0  0  0  0  0  0  0  0  0
   -3.2063   -0.4422   -1.3326 H   0  0  0  0  0  0  0  0  0  0  0  0
   -2.4388    1.5460    1.8189 H   0  0  0  0  0  0  0  0  0  0  0  0
   -1.1382    2.0330    0.6571 H   0  0  0  0  0  0  0  0  0  0  0  0
   -0.7851    0.8400    1.9552 H   0  0  0  0  0  0  0  0  0  0  0  0
   -0.8906   -1.4158    1.4326 H   0  0  0  0  0  0  0  0  0  0  0  0
   -2.1991   -2.0549    0.4071 H   0  0  0  0  0  0  0  0  0  0  0  0
   -0.8611   -1.5149   -1.6617 H   0  0  0  0  0  0  0  0  0  0  0  0
   -0.0368   -2.6580   -0.5783 H   0  0  0  0  0  0  0  0  0  0  0  0
    0.0671    0.6900   -2.0817 H   0  0  0  0  0  0  0  0  0  0  0  0
    1.9809    2.2360   -1.9317 H   0  0  0  0  0  0  0  0  0  0  0  0
    3.8368    1.7773   -0.3565 H   0  0  0  0  0  0  0  0  0  0  0  0
    3.7796   -0.2360    1.0771 H   0  0  0  0  0  0  0  0  0  0  0  0
  1  2  2  0
  2  3  1  0
  2  4  1  0
  4  5  1  0
  5  6  1  0
  6  7  2  0
  7  8  1  0
  8  9  2  0
  9 10  1  0
 10 11  2  0
 11 12  1  0
 11  6  1  0
  1 13  1  0
  1 14  1  0
  3 15  1  0
  3 16  1  0
  3 17  1  0
  4 18  1  0
  4 19  1  0
  5 20  1  0
  5 21  1  0
  7 22  1  0
  8 23  1  0
  9 24  1  0
 10 25  1  0
M  RAD  1  12   3
M  END
$$$$
