
     RDKit          3D

 25 25  0  0  0  0  0  0  0  0999 V2000
   -3.5221    0.3494    1.0350 C   0  0  0  0  0  0  0  0  0  0  0  0
   -2.5978   -0.2217    0.2478 C   0  0  0  0  0  0  0  0  0  0  0  0
   -3.0701   -1.2112   -0.7945 C   0  0  0  0  0  0  0  0  0  0  0  0
   -1.1418    0.1665    0.4598 C   0  0  0  0  0  0  0  0  0  0  0  0
   -0.1310   -0.5184   -0.4702 C   0  0  0  0  0  0  0  0  0  0  0  0
    1.2716   -0.0492   -0.1649 C   0  0  0  0  0  0  0  0  0  0  0  0
    1.7951    1.0604   -0.8519 C   0  0  0  0  0  0  0  0  0  0  0  0
    3.0795    1.5301   -0.5643 C   0  0  0  0  0  0  0  0  0  0  0  0
    3.8501    0.9046    0.4177 C   0  0  0  0  0  0  0  0  0  0  0  0
    3.3366   -0.1893    1.1182 C   0  0  0  0  0  0  0  0  0  0  0  0
    2.0507   -0.6671    0.8374 C   0  0  0  0  0  0  0  0  0  0  0  0
    1.5445   -1.7755    1.5780 N   0  0  0  0  0  1  0  0  0  0  0  0
   -4.5756    0.1078    0.9261 H   0  0  0  0  0  0  0  0  0  0  0  0
   -3.2381    1.0667    1.7998 H   0  0  0  0  0  0  0  0  0  0  0  0
   -3.5939   -2.0537   -0.2949 H   0  0  0  0  0  0  0  0  0  0  0  0
   -3.7804   -0.7102   -1.4859 H   0  0  0  0  0  0  0  0  0  0  0  0
   -2.2542   -1.6390   -1.4050 H   0  0  0  0  0  0  0  0  0  0  0  0
   -1.0524    1.2676    0.3263 H   0  0  0  0  0  0  0  0  0  0  0  0
   -0.8696   -0.0687    1.5126 H   0  0  0  0  0  0  0  0  0  0  0  0
   -0.3769   -0.2796   -1.5283 H   0  0  0  0  0  0  0  0  0  0  0  0
   -0.1899   -1.6217   -0.3498 H   0  0  0  0  0  0  0  0  0  0  0  0
    1.2074    1.5633   -1.6101 H   0  0  0  0  0  0  0  0  0  0  0  0
    3.4763    2.3821   -1.1010 H   0  0  0  0  0  0  0  0  0  0  0  0
    4.8441    1.2709    0.6397 H   0  0  0  0  0  0  0  0  0  0  0  0
    3.9379   -0.6639    1.8836 H   0  0  0  0  0  0  0  0  0  0  0  0
  1  2  2  0
  2  3  1  0
  2  4  1  0
  4  5  1  0
  5  6  1  0
  6  7  2  0
  7  8  1  0
  8  9  2  0
  9 10  1  0
 10 11  2  0
 11 12  1  0
 11  6  1  0
  1 13  1  0
  1 14  1  0
  3 15  1  0
  3 16  1  0
  3 17  1  0
  4 18  1  0
  4 19  1  0
  5 20  1  0
  5 21  1  0
  7 22  1  0
  8 23  1  0
  9 24  1  0
 10 25  1  0
M  RAD  1  12   3
M  END
$$$$
