
     RDKit          3D

 25 25  0  0  0  0  0  0  0  0999 V2000
   -1.7358    1.0043   -0.6836 C   0  0  0  0  0  0  0  0  0  0  0  0
   -1.9852   -0.1150    0.0120 C   0  0  0  0  0  0  0  0  0  0  0  0
   -2.7579   -1.2329   -0.6332 C   0  0  0  0  0  0  0  0  0  0  0  0
   -1.4548   -0.2761    1.4189 C   0  0  0  0  0  0  0  0  0  0  0  0
   -0.1285   -1.0483    1.4470 C   0  0  0  0  0  0  0  0  0  0  0  0
    0.9923   -0.2676    0.7984 C   0  0  0  0  0  0  0  0  0  0  0  0
    1.6102    0.7706    1.5175 C   0  0  0  0  0  0  0  0  0  0  0  0
    2.6257    1.5314    0.9325 C   0  0  0  0  0  0  0  0  0  0  0  0
    3.0318    1.2680   -0.3768 C   0  0  0  0  0  0  0  0  0  0  0  0
    2.4223    0.2440   -1.1053 C   0  0  0  0  0  0  0  0  0  0  0  0
    1.4040   -0.5242   -0.5281 C   0  0  0  0  0  0  0  0  0  0  0  0
    0.7938   -1.5566   -1.2994 N   0  0  0  0  0  1  0  0  0  0  0  0
   -2.0989    1.1187   -1.7006 H   0  0  0  0  0  0  0  0  0  0  0  0
   -1.1602    1.8158   -0.2483 H   0  0  0  0  0  0  0  0  0  0  0  0
   -2.8488   -2.1015    0.0525 H   0  0  0  0  0  0  0  0  0  0  0  0
   -3.7779   -0.8817   -0.8965 H   0  0  0  0  0  0  0  0  0  0  0  0
   -2.2375   -1.5681   -1.5553 H   0  0  0  0  0  0  0  0  0  0  0  0
   -2.2024   -0.8324    2.0245 H   0  0  0  0  0  0  0  0  0  0  0  0
   -1.3286    0.7147    1.9093 H   0  0  0  0  0  0  0  0  0  0  0  0
    0.1401   -1.2503    2.5069 H   0  0  0  0  0  0  0  0  0  0  0  0
   -0.2598   -2.0421    0.9676 H   0  0  0  0  0  0  0  0  0  0  0  0
    1.3014    0.9929    2.5316 H   0  0  0  0  0  0  0  0  0  0  0  0
    3.0963    2.3280    1.4942 H   0  0  0  0  0  0  0  0  0  0  0  0
    3.8176    1.8594   -0.8286 H   0  0  0  0  0  0  0  0  0  0  0  0
    2.7406    0.0491   -2.1218 H   0  0  0  0  0  0  0  0  0  0  0  0
  1  2  2  0
  2  3  1  0
  2  4  1  0
  4  5  1  0
  5  6  1  0
  6  7  2  0
  7  8  1  0
  8  9  2  0
  9 10  1  0
 10 11  2  0
 11 12  1  0
 11  6  1  0
  1 13  1  0
  1 14  1  0
  3 15  1  0
  3 16  1  0
  3 17  1  0
  4 18  1  0
  4 19  1  0
  5 20  1  0
  5 21  1  0
  7 22  1  0
  8 23  1  0
  9 24  1  0
 10 25  1  0
M  RAD  1  12   3
M  END
$$$$
