
     RDKit          3D

 25 25  0  0  0  0  0  0  0  0999 V2000
    1.3561    1.3113   -1.0208 C   0  0  0  0  0  0  0  0  0  0  0  0
    1.9002    0.2161   -0.4701 C   0  0  0  0  0  0  0  0  0  0  0  0
    3.1057    0.3536    0.4192 C   0  0  0  0  0  0  0  0  0  0  0  0
    1.2817   -1.1445   -0.7004 C   0  0  0  0  0  0  0  0  0  0  0  0
    0.3365   -1.5454    0.4406 C   0  0  0  0  0  0  0  0  0  0  0  0
   -0.8939   -0.6679    0.4882 C   0  0  0  0  0  0  0  0  0  0  0  0
   -1.9376   -0.9004   -0.4248 C   0  0  0  0  0  0  0  0  0  0  0  0
   -3.0723   -0.0850   -0.4270 C   0  0  0  0  0  0  0  0  0  0  0  0
   -3.1755    0.9733    0.4774 C   0  0  0  0  0  0  0  0  0  0  0  0
   -2.1435    1.2200    1.3856 C   0  0  0  0  0  0  0  0  0  0  0  0
   -1.0025    0.4086    1.3961 C   0  0  0  0  0  0  0  0  0  0  0  0
    0.0390    0.6907    2.3283 N   0  0  0  0  0  1  0  0  0  0  0  0
    0.4719    1.2409   -1.6473 H   0  0  0  0  0  0  0  0  0  0  0  0
    1.7852    2.2932   -0.8448 H   0  0  0  0  0  0  0  0  0  0  0  0
    2.8715    1.0268    1.2708 H   0  0  0  0  0  0  0  0  0  0  0  0
    3.9533    0.7776   -0.1595 H   0  0  0  0  0  0  0  0  0  0  0  0
    3.4140   -0.6321    0.8271 H   0  0  0  0  0  0  0  0  0  0  0  0
    2.0923   -1.9014   -0.7726 H   0  0  0  0  0  0  0  0  0  0  0  0
    0.7391   -1.1724   -1.6715 H   0  0  0  0  0  0  0  0  0  0  0  0
    0.8834   -1.5284    1.4078 H   0  0  0  0  0  0  0  0  0  0  0  0
    0.0206   -2.5998    0.2834 H   0  0  0  0  0  0  0  0  0  0  0  0
   -1.8695   -1.7125   -1.1382 H   0  0  0  0  0  0  0  0  0  0  0  0
   -3.8711   -0.2723   -1.1329 H   0  0  0  0  0  0  0  0  0  0  0  0
   -4.0546    1.6045    0.4730 H   0  0  0  0  0  0  0  0  0  0  0  0
   -2.2299    2.0456    2.0810 H   0  0  0  0  0  0  0  0  0  0  0  0
  1  2  2  0
  2  3  1  0
  2  4  1  0
  4  5  1  0
  5  6  1  0
  6  7  2  0
  7  8  1  0
  8  9  2  0
  9 10  1  0
 10 11  2  0
 11 12  1  0
 11  6  1  0
  1 13  1  0
  1 14  1  0
  3 15  1  0
  3 16  1  0
  3 17  1  0
  4 18  1  0
  4 19  1  0
  5 20  1  0
  5 21  1  0
  7 22  1  0
  8 23  1  0
  9 24  1  0
 10 25  1  0
M  RAD  1  12   3
M  END
$$$$
