
     RDKit          3D

 25 25  0  0  0  0  0  0  0  0999 V2000
   -1.5764    0.5525    1.4868 C   0  0  0  0  0  0  0  0  0  0  0  0
   -1.9643    0.0111    0.3227 C   0  0  0  0  0  0  0  0  0  0  0  0
   -2.9268    0.7591   -0.5587 C   0  0  0  0  0  0  0  0  0  0  0  0
   -1.3945   -1.3135   -0.1339 C   0  0  0  0  0  0  0  0  0  0  0  0
   -0.2587   -1.1275   -1.1496 C   0  0  0  0  0  0  0  0  0  0  0  0
    0.9428   -0.4483   -0.5336 C   0  0  0  0  0  0  0  0  0  0  0  0
    1.1145    0.9380   -0.6953 C   0  0  0  0  0  0  0  0  0  0  0  0
    2.1989    1.5909   -0.1036 C   0  0  0  0  0  0  0  0  0  0  0  0
    3.1197    0.8692    0.6583 C   0  0  0  0  0  0  0  0  0  0  0  0
    2.9571   -0.5071    0.8327 C   0  0  0  0  0  0  0  0  0  0  0  0
    1.8731   -1.1699    0.2446 C   0  0  0  0  0  0  0  0  0  0  0  0
    1.7250   -2.5740    0.4451 N   0  0  0  0  0  1  0  0  0  0  0  0
   -1.9653    1.5137    1.8093 H   0  0  0  0  0  0  0  0  0  0  0  0
   -0.8603    0.0464    2.1274 H   0  0  0  0  0  0  0  0  0  0  0  0
   -3.8869    0.9126   -0.0222 H   0  0  0  0  0  0  0  0  0  0  0  0
   -2.4975    1.7464   -0.8316 H   0  0  0  0  0  0  0  0  0  0  0  0
   -3.1310    0.1949   -1.4931 H   0  0  0  0  0  0  0  0  0  0  0  0
   -1.0340   -1.9099    0.7332 H   0  0  0  0  0  0  0  0  0  0  0  0
   -2.2043   -1.9076   -0.6096 H   0  0  0  0  0  0  0  0  0  0  0  0
    0.0393   -2.1228   -1.5443 H   0  0  0  0  0  0  0  0  0  0  0  0
   -0.6294   -0.5458   -2.0223 H   0  0  0  0  0  0  0  0  0  0  0  0
    0.4037    1.5150   -1.2741 H   0  0  0  0  0  0  0  0  0  0  0  0
    2.3234    2.6582   -0.2332 H   0  0  0  0  0  0  0  0  0  0  0  0
    3.9584    1.3772    1.1165 H   0  0  0  0  0  0  0  0  0  0  0  0
    3.6736   -1.0587    1.4285 H   0  0  0  0  0  0  0  0  0  0  0  0
  1  2  2  0
  2  3  1  0
  2  4  1  0
  4  5  1  0
  5  6  1  0
  6  7  2  0
  7  8  1  0
  8  9  2  0
  9 10  1  0
 10 11  2  0
 11 12  1  0
 11  6  1  0
  1 13  1  0
  1 14  1  0
  3 15  1  0
  3 16  1  0
  3 17  1  0
  4 18  1  0
  4 19  1  0
  5 20  1  0
  5 21  1  0
  7 22  1  0
  8 23  1  0
  9 24  1  0
 10 25  1  0
M  RAD  1  12   3
M  END
$$$$
