
     RDKit          3D

 25 25  0  0  0  0  0  0  0  0999 V2000
    1.9932   -0.5923    1.8999 C   0  0  0  0  0  0  0  0  0  0  0  0
    1.7881    0.0534    0.7426 C   0  0  0  0  0  0  0  0  0  0  0  0
    2.2868   -0.5527   -0.5417 C   0  0  0  0  0  0  0  0  0  0  0  0
    1.0610    1.3807    0.7299 C   0  0  0  0  0  0  0  0  0  0  0  0
   -0.4479    1.2123    0.9596 C   0  0  0  0  0  0  0  0  0  0  0  0
   -1.1000    0.4352   -0.1611 C   0  0  0  0  0  0  0  0  0  0  0  0
   -1.3137   -0.9468   -0.0137 C   0  0  0  0  0  0  0  0  0  0  0  0
   -1.8777   -1.6909   -1.0531 C   0  0  0  0  0  0  0  0  0  0  0  0
   -2.2296   -1.0657   -2.2507 C   0  0  0  0  0  0  0  0  0  0  0  0
   -2.0159    0.3051   -2.4132 C   0  0  0  0  0  0  0  0  0  0  0  0
   -1.4500    1.0588   -1.3779 C   0  0  0  0  0  0  0  0  0  0  0  0
   -1.2325    2.4546   -1.5729 N   0  0  0  0  0  1  0  0  0  0  0  0
    1.6446   -0.1750    2.8398 H   0  0  0  0  0  0  0  0  0  0  0  0
    2.5124   -1.5460    1.9201 H   0  0  0  0  0  0  0  0  0  0  0  0
    1.8309   -1.5554   -0.6847 H   0  0  0  0  0  0  0  0  0  0  0  0
    2.0184    0.0764   -1.4161 H   0  0  0  0  0  0  0  0  0  0  0  0
    3.3919   -0.6555   -0.5053 H   0  0  0  0  0  0  0  0  0  0  0  0
    1.2296    1.9075   -0.2339 H   0  0  0  0  0  0  0  0  0  0  0  0
    1.4802    2.0353    1.5249 H   0  0  0  0  0  0  0  0  0  0  0  0
   -0.6264    0.7106    1.9360 H   0  0  0  0  0  0  0  0  0  0  0  0
   -0.9157    2.2173    1.0380 H   0  0  0  0  0  0  0  0  0  0  0  0
   -1.0363   -1.4499    0.9044 H   0  0  0  0  0  0  0  0  0  0  0  0
   -2.0386   -2.7542   -0.9311 H   0  0  0  0  0  0  0  0  0  0  0  0
   -2.6654   -1.6442   -3.0550 H   0  0  0  0  0  0  0  0  0  0  0  0
   -2.2874    0.7814   -3.3470 H   0  0  0  0  0  0  0  0  0  0  0  0
  1  2  2  0
  2  3  1  0
  2  4  1  0
  4  5  1  0
  5  6  1  0
  6  7  2  0
  7  8  1  0
  8  9  2  0
  9 10  1  0
 10 11  2  0
 11 12  1  0
 11  6  1  0
  1 13  1  0
  1 14  1  0
  3 15  1  0
  3 16  1  0
  3 17  1  0
  4 18  1  0
  4 19  1  0
  5 20  1  0
  5 21  1  0
  7 22  1  0
  8 23  1  0
  9 24  1  0
 10 25  1  0
M  RAD  1  12   3
M  END
$$$$
