
     RDKit          3D

 25 25  0  0  0  0  0  0  0  0999 V2000
   -1.6369    0.8423    1.4136 C   0  0  0  0  0  0  0  0  0  0  0  0
   -1.9336   -0.2284    0.6623 C   0  0  0  0  0  0  0  0  0  0  0  0
   -2.5713   -1.4308    1.3031 C   0  0  0  0  0  0  0  0  0  0  0  0
   -1.5885   -0.2500   -0.8099 C   0  0  0  0  0  0  0  0  0  0  0  0
   -0.2494   -0.9519   -1.0748 C   0  0  0  0  0  0  0  0  0  0  0  0
    0.9171   -0.1721   -0.5113 C   0  0  0  0  0  0  0  0  0  0  0  0
    1.3947    0.9494   -1.2120 C   0  0  0  0  0  0  0  0  0  0  0  0
    2.4492    1.7094   -0.6995 C   0  0  0  0  0  0  0  0  0  0  0  0
    3.0347    1.3618    0.5191 C   0  0  0  0  0  0  0  0  0  0  0  0
    2.5663    0.2541    1.2292 C   0  0  0  0  0  0  0  0  0  0  0  0
    1.5102   -0.5140    0.7241 C   0  0  0  0  0  0  0  0  0  0  0  0
    1.0470   -1.6334    1.4760 N   0  0  0  0  0  1  0  0  0  0  0  0
   -1.1551    1.7132    0.9792 H   0  0  0  0  0  0  0  0  0  0  0  0
   -1.8662    0.8569    2.4749 H   0  0  0  0  0  0  0  0  0  0  0  0
   -3.5600   -1.1520    1.7248 H   0  0  0  0  0  0  0  0  0  0  0  0
   -1.9210   -1.8132    2.1182 H   0  0  0  0  0  0  0  0  0  0  0  0
   -2.7193   -2.2449    0.5627 H   0  0  0  0  0  0  0  0  0  0  0  0
   -1.5660    0.7820   -1.2254 H   0  0  0  0  0  0  0  0  0  0  0  0
   -2.3882   -0.7916   -1.3597 H   0  0  0  0  0  0  0  0  0  0  0  0
   -0.2784   -1.9862   -0.6697 H   0  0  0  0  0  0  0  0  0  0  0  0
   -0.1160   -1.0548   -2.1739 H   0  0  0  0  0  0  0  0  0  0  0  0
    0.9460    1.2370   -2.1550 H   0  0  0  0  0  0  0  0  0  0  0  0
    2.8107    2.5705   -1.2465 H   0  0  0  0  0  0  0  0  0  0  0  0
    3.8505    1.9527    0.9150 H   0  0  0  0  0  0  0  0  0  0  0  0
    3.0235   -0.0060    2.1757 H   0  0  0  0  0  0  0  0  0  0  0  0
  1  2  2  0
  2  3  1  0
  2  4  1  0
  4  5  1  0
  5  6  1  0
  6  7  2  0
  7  8  1  0
  8  9  2  0
  9 10  1  0
 10 11  2  0
 11 12  1  0
 11  6  1  0
  1 13  1  0
  1 14  1  0
  3 15  1  0
  3 16  1  0
  3 17  1  0
  4 18  1  0
  4 19  1  0
  5 20  1  0
  5 21  1  0
  7 22  1  0
  8 23  1  0
  9 24  1  0
 10 25  1  0
M  RAD  1  12   3
M  END
$$$$
