 xtb: 6.7.1 (edcfbbe)
          07312615183D

239260  0     0  0            999 V2000
    0.1274   -1.7269   -0.8295 N   0  0  0  0  0  0  0  0  0  0  0  0
   -0.1442   -1.0643    1.9299 N   0  0  0  0  0  0  0  0  0  0  0  0
   -0.4453   -0.9521   -3.1190 C   0  0  0  0  0  0  0  0  0  0  0  0
   -0.0100   -1.9146   -2.1802 C   0  0  0  0  0  0  0  0  0  0  0  0
    0.4177   -3.2554   -2.5337 C   0  0  0  0  0  0  0  0  0  0  0  0
    0.4020   -3.6647   -3.5448 H   0  0  0  0  0  0  0  0  0  0  0  0
    0.8390   -3.8514   -1.3787 C   0  0  0  0  0  0  0  0  0  0  0  0
    1.2409   -4.8563   -1.2426 H   0  0  0  0  0  0  0  0  0  0  0  0
    0.6223   -2.8970   -0.3082 C   0  0  0  0  0  0  0  0  0  0  0  0
    0.7983   -3.1918    1.0587 C   0  0  0  0  0  0  0  0  0  0  0  0
    0.3704   -2.3278    2.0857 C   0  0  0  0  0  0  0  0  0  0  0  0
    0.2901   -2.7132    3.4823 C   0  0  0  0  0  0  0  0  0  0  0  0
    0.6318   -3.6702    3.8796 H   0  0  0  0  0  0  0  0  0  0  0  0
   -0.3212   -1.6873    4.1450 C   0  0  0  0  0  0  0  0  0  0  0  0
   -0.5782   -1.6148    5.2026 H   0  0  0  0  0  0  0  0  0  0  0  0
   -0.5764   -0.6497    3.1635 C   0  0  0  0  0  0  0  0  0  0  0  0
    1.3549   -4.5372    1.4436 C   0  0  0  0  0  0  0  0  0  0  0  0
    2.6943   -4.6722    1.8799 C   0  0  0  0  0  0  0  0  0  0  0  0
    3.2227   -5.9236    2.2455 C   0  0  0  0  0  0  0  0  0  0  0  0
    2.4077   -7.0567    2.1665 C   0  0  0  0  0  0  0  0  0  0  0  0
    2.8192   -8.0371    2.4403 H   0  0  0  0  0  0  0  0  0  0  0  0
    1.0799   -6.9636    1.7416 C   0  0  0  0  0  0  0  0  0  0  0  0
    0.5554   -5.7046    1.3923 C   0  0  0  0  0  0  0  0  0  0  0  0
   -0.9189    1.6061    1.2054 N   0  0  0  0  0  0  0  0  0  0  0  0
   -0.6012    0.9582   -1.5348 N   0  0  0  0  0  0  0  0  0  0  0  0
   -1.1549    0.6009    3.4684 C   0  0  0  0  0  0  0  0  0  0  0  0
   -1.2496    1.6584    2.5371 C   0  0  0  0  0  0  0  0  0  0  0  0
   -1.6443    3.0077    2.8877 C   0  0  0  0  0  0  0  0  0  0  0  0
   -1.9735    3.3170    3.8810 H   0  0  0  0  0  0  0  0  0  0  0  0
   -1.5008    3.7690    1.7610 C   0  0  0  0  0  0  0  0  0  0  0  0
   -1.6965    4.8341    1.6341 H   0  0  0  0  0  0  0  0  0  0  0  0
   -1.0837    2.8762    0.7005 C   0  0  0  0  0  0  0  0  0  0  0  0
   -0.9574    3.2513   -0.6500 C   0  0  0  0  0  0  0  0  0  0  0  0
   -0.8129    2.3054   -1.6840 C   0  0  0  0  0  0  0  0  0  0  0  0
   -1.0094    2.6157   -3.0860 C   0  0  0  0  0  0  0  0  0  0  0  0
   -1.1956    3.6161   -3.4784 H   0  0  0  0  0  0  0  0  0  0  0  0
   -0.9672    1.4311   -3.7646 C   0  0  0  0  0  0  0  0  0  0  0  0
   -1.1076    1.2521   -4.8315 H   0  0  0  0  0  0  0  0  0  0  0  0
   -0.6784    0.3988   -2.7873 C   0  0  0  0  0  0  0  0  0  0  0  0
   -1.0480    4.7037   -1.0318 C   0  0  0  0  0  0  0  0  0  0  0  0
    0.1303    5.4128   -1.3710 C   0  0  0  0  0  0  0  0  0  0  0  0
    0.0789    6.7560   -1.7857 C   0  0  0  0  0  0  0  0  0  0  0  0
   -1.1578    7.4067   -1.8343 C   0  0  0  0  0  0  0  0  0  0  0  0
   -1.2021    8.4577   -2.1486 H   0  0  0  0  0  0  0  0  0  0  0  0
   -2.3395    6.7421   -1.4932 C   0  0  0  0  0  0  0  0  0  0  0  0
   -2.2833    5.3891   -1.1091 C   0  0  0  0  0  0  0  0  0  0  0  0
   -0.2876   -0.0206    0.2006 Fe  0  0  0  0  0  0  0  0  0  0  0  0
   -2.5061   -0.6842    0.1504 Cl  0  0  0  0  0  0  0  0  0  0  0  0
   -1.7525    0.7994    4.8397 C   0  0  0  0  0  0  0  0  0  0  0  0
   -1.0023    1.3456    5.9150 C   0  0  0  0  0  0  0  0  0  0  0  0
   -3.1083    0.4242    5.0544 C   0  0  0  0  0  0  0  0  0  0  0  0
   -1.5941    1.5205    7.1819 C   0  0  0  0  0  0  0  0  0  0  0  0
    0.3436    1.7148    5.6594 N   0  0  0  0  0  0  0  0  0  0  0  0
   -3.6966    0.6234    6.3218 C   0  0  0  0  0  0  0  0  0  0  0  0
   -3.8182   -0.1698    3.9841 N   0  0  0  0  0  0  0  0  0  0  0  0
   -0.9946    1.9293    7.9997 H   0  0  0  0  0  0  0  0  0  0  0  0
   -2.9336    1.1623    7.3611 C   0  0  0  0  0  0  0  0  0  0  0  0
    1.3079    2.1356    6.5487 C   0  0  0  0  0  0  0  0  0  0  0  0
    0.6258    1.6214    4.6818 H   0  0  0  0  0  0  0  0  0  0  0  0
   -4.7454    0.3504    6.4636 H   0  0  0  0  0  0  0  0  0  0  0  0
   -5.1428   -0.5599    3.9510 C   0  0  0  0  0  0  0  0  0  0  0  0
   -3.2790   -0.3340    3.1286 H   0  0  0  0  0  0  0  0  0  0  0  0
   -3.3972    1.3063    8.3456 H   0  0  0  0  0  0  0  0  0  0  0  0
    1.1502    2.2374    7.7600 O   0  0  0  0  0  0  0  0  0  0  0  0
    2.6350    2.4777    5.9054 C   0  0  0  0  0  0  0  0  0  0  0  0
   -5.9525   -0.3391    4.8463 O   0  0  0  0  0  0  0  0  0  0  0  0
   -5.5352   -1.3121    2.7019 C   0  0  0  0  0  0  0  0  0  0  0  0
    3.8909    2.1061    6.6508 C   0  0  0  0  0  0  0  0  0  0  0  0
    2.6980    2.4852    4.8126 H   0  0  0  0  0  0  0  0  0  0  0  0
    3.4545    3.5512    6.6320 C   0  0  0  0  0  0  0  0  0  0  0  0
   -6.8869   -1.0272    2.0960 C   0  0  0  0  0  0  0  0  0  0  0  0
   -4.7425   -1.6119    2.0067 H   0  0  0  0  0  0  0  0  0  0  0  0
   -6.6980   -2.2950    2.8947 C   0  0  0  0  0  0  0  0  0  0  0  0
    3.7703    1.5783    7.5998 H   0  0  0  0  0  0  0  0  0  0  0  0
    4.7625    1.8400    6.0492 H   0  0  0  0  0  0  0  0  0  0  0  0
    3.0073    3.9424    7.5492 H   0  0  0  0  0  0  0  0  0  0  0  0
    4.2266    4.5311    5.8063 C   0  0  0  0  0  0  0  0  0  0  0  0
   -7.4911   -0.2514    2.5748 H   0  0  0  0  0  0  0  0  0  0  0  0
   -6.9633   -1.1118    1.0085 H   0  0  0  0  0  0  0  0  0  0  0  0
   -7.1266   -2.3093    3.9016 H   0  0  0  0  0  0  0  0  0  0  0  0
   -6.6541   -3.6118    2.1949 C   0  0  0  0  0  0  0  0  0  0  0  0
    4.3024    5.7238    6.4190 O   0  0  0  0  0  0  0  0  0  0  0  0
    4.7387    4.2806    4.7314 O   0  0  0  0  0  0  0  0  0  0  0  0
   -7.2596   -4.5674    2.9343 O   0  0  0  0  0  0  0  0  0  0  0  0
   -6.1573   -3.8170    1.1058 O   0  0  0  0  0  0  0  0  0  0  0  0
    5.0368    6.8021    5.7665 C   0  0  0  0  0  0  0  0  0  0  0  0
   -7.3278   -5.9154    2.3903 C   0  0  0  0  0  0  0  0  0  0  0  0
    4.0531    7.6710    4.9731 C   0  0  0  0  0  0  0  0  0  0  0  0
    5.7774    7.5627    6.8652 C   0  0  0  0  0  0  0  0  0  0  0  0
    5.7493    6.3262    5.0691 H   0  0  0  0  0  0  0  0  0  0  0  0
   -7.3219   -6.8709    3.5847 C   0  0  0  0  0  0  0  0  0  0  0  0
   -8.5737   -6.0426    1.5065 C   0  0  0  0  0  0  0  0  0  0  0  0
   -6.4227   -6.0610    1.7704 H   0  0  0  0  0  0  0  0  0  0  0  0
    3.5572    7.0713    4.1937 H   0  0  0  0  0  0  0  0  0  0  0  0
    3.2885    8.0923    5.6394 H   0  0  0  0  0  0  0  0  0  0  0  0
    4.5891    8.5000    4.4905 H   0  0  0  0  0  0  0  0  0  0  0  0
    6.4562    6.8959    7.4121 H   0  0  0  0  0  0  0  0  0  0  0  0
    6.3746    8.3771    6.4333 H   0  0  0  0  0  0  0  0  0  0  0  0
    5.0730    7.9969    7.5862 H   0  0  0  0  0  0  0  0  0  0  0  0
   -6.4153   -6.7277    4.1867 H   0  0  0  0  0  0  0  0  0  0  0  0
   -8.1997   -6.6999    4.2259 H   0  0  0  0  0  0  0  0  0  0  0  0
   -7.3540   -7.9135    3.2396 H   0  0  0  0  0  0  0  0  0  0  0  0
   -8.5199   -5.3347    0.6682 H   0  0  0  0  0  0  0  0  0  0  0  0
   -8.6508   -7.0603    1.0992 H   0  0  0  0  0  0  0  0  0  0  0  0
   -9.4858   -5.8399    2.0883 H   0  0  0  0  0  0  0  0  0  0  0  0
   -0.6629   -1.4163   -4.5375 C   0  0  0  0  0  0  0  0  0  0  0  0
    0.3056   -1.1907   -5.5529 C   0  0  0  0  0  0  0  0  0  0  0  0
   -1.8535   -2.1253   -4.8571 C   0  0  0  0  0  0  0  0  0  0  0  0
    0.1197   -1.7210   -6.8450 C   0  0  0  0  0  0  0  0  0  0  0  0
    1.4349   -0.4015   -5.2165 N   0  0  0  0  0  0  0  0  0  0  0  0
   -2.0277   -2.6597   -6.1514 C   0  0  0  0  0  0  0  0  0  0  0  0
   -2.8493   -2.2261   -3.8579 N   0  0  0  0  0  0  0  0  0  0  0  0
    0.8813   -1.5413   -7.6091 H   0  0  0  0  0  0  0  0  0  0  0  0
   -1.0383   -2.4571   -7.1182 C   0  0  0  0  0  0  0  0  0  0  0  0
    2.3802    0.1562   -6.0498 C   0  0  0  0  0  0  0  0  0  0  0  0
    1.4373   -0.0766   -4.2481 H   0  0  0  0  0  0  0  0  0  0  0  0
   -2.9384   -3.2236   -6.3708 H   0  0  0  0  0  0  0  0  0  0  0  0
   -4.0701   -2.8678   -3.9205 C   0  0  0  0  0  0  0  0  0  0  0  0
   -2.6521   -1.7157   -2.9928 H   0  0  0  0  0  0  0  0  0  0  0  0
   -1.1790   -2.8770   -8.1227 H   0  0  0  0  0  0  0  0  0  0  0  0
    2.5035   -0.0939   -7.2429 O   0  0  0  0  0  0  0  0  0  0  0  0
    3.2608    1.1788   -5.3635 C   0  0  0  0  0  0  0  0  0  0  0  0
   -4.4299   -3.5866   -4.8474 O   0  0  0  0  0  0  0  0  0  0  0  0
   -4.9643   -2.5928   -2.7360 C   0  0  0  0  0  0  0  0  0  0  0  0
    3.5698    2.4354   -6.1395 C   0  0  0  0  0  0  0  0  0  0  0  0
    3.1856    1.2819   -4.2753 H   0  0  0  0  0  0  0  0  0  0  0  0
    4.6540    1.4000   -5.9526 C   0  0  0  0  0  0  0  0  0  0  0  0
   -5.8570   -3.7002   -2.2379 C   0  0  0  0  0  0  0  0  0  0  0  0
   -4.6217   -1.8702   -1.9860 H   0  0  0  0  0  0  0  0  0  0  0  0
   -6.4671   -2.5877   -3.0556 C   0  0  0  0  0  0  0  0  0  0  0  0
    3.1444    2.5137   -7.1435 H   0  0  0  0  0  0  0  0  0  0  0  0
    3.6599    3.3645   -5.5718 H   0  0  0  0  0  0  0  0  0  0  0  0
    4.9147    0.7870   -6.8193 H   0  0  0  0  0  0  0  0  0  0  0  0
    5.7641    1.7180   -5.0006 C   0  0  0  0  0  0  0  0  0  0  0  0
   -5.7736   -4.6655   -2.7441 H   0  0  0  0  0  0  0  0  0  0  0  0
   -6.0507   -3.7190   -1.1621 H   0  0  0  0  0  0  0  0  0  0  0  0
   -6.7202   -2.8205   -4.0945 H   0  0  0  0  0  0  0  0  0  0  0  0
   -7.3305   -1.5627   -2.3982 C   0  0  0  0  0  0  0  0  0  0  0  0
    6.9438    1.2760   -5.4693 O   0  0  0  0  0  0  0  0  0  0  0  0
    5.6228    2.3143   -3.9497 O   0  0  0  0  0  0  0  0  0  0  0  0
   -8.3222   -1.1672   -3.2252 O   0  0  0  0  0  0  0  0  0  0  0  0
   -7.1846   -1.1370   -1.2700 O   0  0  0  0  0  0  0  0  0  0  0  0
    8.1447    1.5235   -4.6807 C   0  0  0  0  0  0  0  0  0  0  0  0
   -9.2651   -0.1713   -2.7367 C   0  0  0  0  0  0  0  0  0  0  0  0
    9.0714    0.3268   -4.9020 C   0  0  0  0  0  0  0  0  0  0  0  0
    8.7532    2.8635   -5.1040 C   0  0  0  0  0  0  0  0  0  0  0  0
    7.8277    1.5813   -3.6218 H   0  0  0  0  0  0  0  0  0  0  0  0
   -8.7123    1.2338   -3.0079 C   0  0  0  0  0  0  0  0  0  0  0  0
  -10.5974   -0.4523   -3.4307 C   0  0  0  0  0  0  0  0  0  0  0  0
   -9.3536   -0.3204   -1.6452 H   0  0  0  0  0  0  0  0  0  0  0  0
    8.5724   -0.6034   -4.6001 H   0  0  0  0  0  0  0  0  0  0  0  0
    9.3568    0.2458   -5.9619 H   0  0  0  0  0  0  0  0  0  0  0  0
    9.9909    0.4449   -4.3128 H   0  0  0  0  0  0  0  0  0  0  0  0
    8.0445    3.6816   -4.9223 H   0  0  0  0  0  0  0  0  0  0  0  0
    9.6684    3.0666   -4.5310 H   0  0  0  0  0  0  0  0  0  0  0  0
    9.0182    2.8500   -6.1725 H   0  0  0  0  0  0  0  0  0  0  0  0
   -7.7575    1.3785   -2.4768 H   0  0  0  0  0  0  0  0  0  0  0  0
   -8.5493    1.3825   -4.0843 H   0  0  0  0  0  0  0  0  0  0  0  0
   -9.4243    1.9941   -2.6580 H   0  0  0  0  0  0  0  0  0  0  0  0
  -10.9405   -1.4743   -3.2164 H   0  0  0  0  0  0  0  0  0  0  0  0
  -11.3679    0.2483   -3.0819 H   0  0  0  0  0  0  0  0  0  0  0  0
  -10.5035   -0.3431   -4.5192 H   0  0  0  0  0  0  0  0  0  0  0  0
    4.2624   -6.0042    2.5836 H   0  0  0  0  0  0  0  0  0  0  0  0
    0.4494   -7.8579    1.6762 H   0  0  0  0  0  0  0  0  0  0  0  0
    0.9976    7.2793   -2.0746 H   0  0  0  0  0  0  0  0  0  0  0  0
   -3.3039    7.2626   -1.5273 H   0  0  0  0  0  0  0  0  0  0  0  0
    3.4276   -3.5073    1.9263 O   0  0  0  0  0  0  0  0  0  0  0  0
   -0.7306   -5.5255    0.9395 O   0  0  0  0  0  0  0  0  0  0  0  0
    1.2904    4.6708   -1.3387 O   0  0  0  0  0  0  0  0  0  0  0  0
   -3.3922    4.6664   -0.7346 O   0  0  0  0  0  0  0  0  0  0  0  0
    4.7597   -3.5349    2.3391 C   0  0  0  0  0  0  0  0  0  0  0  0
    5.7765   -3.7970    1.4105 C   0  0  0  0  0  0  0  0  0  0  0  0
    5.0690   -3.2205    3.6692 C   0  0  0  0  0  0  0  0  0  0  0  0
    7.1140   -3.7508    1.8251 C   0  0  0  0  0  0  0  0  0  0  0  0
    5.5098   -4.0293    0.3745 H   0  0  0  0  0  0  0  0  0  0  0  0
    6.4104   -3.1757    4.0717 C   0  0  0  0  0  0  0  0  0  0  0  0
    4.2524   -3.0101    4.3676 H   0  0  0  0  0  0  0  0  0  0  0  0
    7.4345   -3.4423    3.1536 C   0  0  0  0  0  0  0  0  0  0  0  0
    7.9126   -3.9545    1.1026 H   0  0  0  0  0  0  0  0  0  0  0  0
    6.6580   -2.9298    5.1105 H   0  0  0  0  0  0  0  0  0  0  0  0
    8.4846   -3.4077    3.4731 H   0  0  0  0  0  0  0  0  0  0  0  0
   -1.6946   -6.5175    1.0877 C   0  0  0  0  0  0  0  0  0  0  0  0
   -2.0842   -6.9768    2.3541 C   0  0  0  0  0  0  0  0  0  0  0  0
   -2.3297   -6.9905   -0.0688 C   0  0  0  0  0  0  0  0  0  0  0  0
   -3.1024   -7.9328    2.4546 C   0  0  0  0  0  0  0  0  0  0  0  0
   -1.5907   -6.5794    3.2475 H   0  0  0  0  0  0  0  0  0  0  0  0
   -3.3526   -7.9400    0.0462 C   0  0  0  0  0  0  0  0  0  0  0  0
   -2.0152   -6.5979   -1.0412 H   0  0  0  0  0  0  0  0  0  0  0  0
   -3.7375   -8.4191    1.3047 C   0  0  0  0  0  0  0  0  0  0  0  0
   -3.4068   -8.2971    3.4420 H   0  0  0  0  0  0  0  0  0  0  0  0
   -3.8513   -8.3100   -0.8563 H   0  0  0  0  0  0  0  0  0  0  0  0
   -4.5343   -9.1697    1.3905 H   0  0  0  0  0  0  0  0  0  0  0  0
    2.5541    5.2292   -1.2145 C   0  0  0  0  0  0  0  0  0  0  0  0
    2.8426    6.2880   -0.3392 C   0  0  0  0  0  0  0  0  0  0  0  0
    3.5847    4.6137   -1.9433 C   0  0  0  0  0  0  0  0  0  0  0  0
    4.1646    6.7366   -0.2140 C   0  0  0  0  0  0  0  0  0  0  0  0
    2.0406    6.7477    0.2467 H   0  0  0  0  0  0  0  0  0  0  0  0
    4.9008    5.0652   -1.8040 C   0  0  0  0  0  0  0  0  0  0  0  0
    3.3461    3.7772   -2.6079 H   0  0  0  0  0  0  0  0  0  0  0  0
    5.1965    6.1330   -0.9444 C   0  0  0  0  0  0  0  0  0  0  0  0
    4.3901    7.5649    0.4701 H   0  0  0  0  0  0  0  0  0  0  0  0
    5.6884    4.5648   -2.3780 H   0  0  0  0  0  0  0  0  0  0  0  0
    6.2279    6.4937   -0.8398 H   0  0  0  0  0  0  0  0  0  0  0  0
   -4.6759    5.0553   -1.0994 C   0  0  0  0  0  0  0  0  0  0  0  0
   -5.0310    5.2733   -2.4385 C   0  0  0  0  0  0  0  0  0  0  0  0
   -5.6409    5.1372   -0.0852 C   0  0  0  0  0  0  0  0  0  0  0  0
   -6.3569    5.5942   -2.7543 C   0  0  0  0  0  0  0  0  0  0  0  0
   -4.2706    5.1838   -3.2215 H   0  0  0  0  0  0  0  0  0  0  0  0
   -6.9649    5.4515   -0.4157 C   0  0  0  0  0  0  0  0  0  0  0  0
   -5.3365    4.9441    0.9483 H   0  0  0  0  0  0  0  0  0  0  0  0
   -7.3268    5.6871   -1.7480 C   0  0  0  0  0  0  0  0  0  0  0  0
   -6.6373    5.7650   -3.7994 H   0  0  0  0  0  0  0  0  0  0  0  0
   -7.7201    5.5143    0.3751 H   0  0  0  0  0  0  0  0  0  0  0  0
   -8.3649    5.9377   -2.0031 H   0  0  0  0  0  0  0  0  0  0  0  0
    1.2994    0.4050    0.2151 N   0  0  0  0  0  0  0  0  0  0  0  0
    2.5363    0.6037   -0.1316 C   0  0  0  0  0  0  0  0  0  0  0  0
    2.9466    0.0598   -1.3896 C   0  0  0  0  0  0  0  0  0  0  0  0
    4.2281    0.1985   -1.8503 C   0  0  0  0  0  0  0  0  0  0  0  0
    5.1642    0.9125   -1.1113 C   0  0  0  0  0  0  0  0  0  0  0  0
    4.7927    1.4529    0.1093 C   0  0  0  0  0  0  0  0  0  0  0  0
    3.5234    1.3074    0.6352 C   0  0  0  0  0  0  0  0  0  0  0  0
    3.2451    1.8512    2.0089 C   0  0  0  0  0  0  0  0  0  0  0  0
    1.8461    2.4573    2.1740 C   0  0  0  0  0  0  0  0  0  0  0  0
    1.7995    3.8315    2.7652 C   0  0  0  0  0  0  0  0  0  0  0  0
    2.5411    4.9071    2.2154 C   0  0  0  0  0  0  0  0  0  0  0  0
    2.1853    6.1105    2.7237 C   0  0  0  0  0  0  0  0  0  0  0  0
    0.9793    5.9679    3.9433 S   0  0  0  0  0  0  0  0  0  0  0  0
    0.9438    4.2657    3.7304 C   0  0  0  0  0  0  0  0  0  0  0  0
    2.2023   -0.4890   -1.9447 H   0  0  0  0  0  0  0  0  0  0  0  0
    4.5072   -0.2441   -2.7954 H   0  0  0  0  0  0  0  0  0  0  0  0
    6.1656    1.0497   -1.4842 H   0  0  0  0  0  0  0  0  0  0  0  0
    5.5252    2.0011    0.6839 H   0  0  0  0  0  0  0  0  0  0  0  0
    3.3672    1.0310    2.7228 H   0  0  0  0  0  0  0  0  0  0  0  0
    4.0053    2.5974    2.2485 H   0  0  0  0  0  0  0  0  0  0  0  0
    1.4008    2.5470    1.1779 H   0  0  0  0  0  0  0  0  0  0  0  0
    1.2118    1.7758    2.7386 H   0  0  0  0  0  0  0  0  0  0  0  0
    3.2942    4.7692    1.4642 H   0  0  0  0  0  0  0  0  0  0  0  0
    2.5337    7.0833    2.4408 H   0  0  0  0  0  0  0  0  0  0  0  0
    0.2629    3.7086    4.3352 H   0  0  0  0  0  0  0  0  0  0  0  0
  1  4  4  0  0  0  0
  3  4  4  0  0  0  0
  4  5  1  0  0  0  0
  5  6  1  0  0  0  0
  5  7  2  0  0  0  0
  7  8  1  0  0  0  0
  1  9  4  0  0  0  0
  7  9  1  0  0  0  0
  9 10  4  0  0  0  0
  2 11  4  0  0  0  0
 10 11  4  0  0  0  0
 11 12  1  0  0  0  0
 12 13  1  0  0  0  0
 12 14  2  0  0  0  0
 14 15  1  0  0  0  0
  2 16  4  0  0  0  0
 14 16  1  0  0  0  0
 10 17  1  0  0  0  0
 17 18  4  0  0  0  0
 18 19  4  0  0  0  0
 19 20  4  0  0  0  0
 20 21  1  0  0  0  0
 20 22  4  0  0  0  0
 17 23  4  0  0  0  0
 22 23  4  0  0  0  0
 16 26  4  0  0  0  0
 24 27  4  0  0  0  0
 26 27  4  0  0  0  0
 27 28  1  0  0  0  0
 28 29  1  0  0  0  0
 28 30  2  0  0  0  0
 30 31  1  0  0  0  0
 24 32  4  0  0  0  0
 30 32  1  0  0  0  0
 32 33  4  0  0  0  0
 25 34  4  0  0  0  0
 33 34  4  0  0  0  0
 34 35  1  0  0  0  0
 35 36  1  0  0  0  0
 35 37  2  0  0  0  0
 37 38  1  0  0  0  0
  3 39  4  0  0  0  0
 25 39  4  0  0  0  0
 37 39  1  0  0  0  0
 33 40  1  0  0  0  0
 40 41  4  0  0  0  0
 41 42  4  0  0  0  0
 42 43  4  0  0  0  0
 43 44  1  0  0  0  0
 43 45  4  0  0  0  0
 40 46  4  0  0  0  0
 45 46  4  0  0  0  0
  1 47  1  0  0  0  0
  2 47  1  0  0  0  0
 24 47  1  0  0  0  0
 25 47  1  0  0  0  0
 47 48  1  0  0  0  0
 26 49  1  0  0  0  0
 49 50  4  0  0  0  0
 49 51  4  0  0  0  0
 50 52  4  0  0  0  0
 50 53  1  0  0  0  0
 51 54  4  0  0  0  0
 51 55  1  0  0  0  0
 52 56  1  0  0  0  0
 52 57  4  0  0  0  0
 54 57  4  0  0  0  0
 53 58  4  0  0  0  0
 53 59  1  0  0  0  0
 54 60  1  0  0  0  0
 55 61  4  0  0  0  0
 55 62  1  0  0  0  0
 57 63  1  0  0  0  0
 58 64  2  0  0  0  0
 58 65  1  0  0  0  0
 61 66  2  0  0  0  0
 61 67  1  0  0  0  0
 65 68  1  0  0  0  0
 65 69  1  0  0  0  0
 65 70  1  0  0  0  0
 68 70  1  0  0  0  0
 67 71  1  0  0  0  0
 67 72  1  0  0  0  0
 67 73  1  0  0  0  0
 71 73  1  0  0  0  0
 68 74  1  0  0  0  0
 68 75  1  0  0  0  0
 70 76  1  0  0  0  0
 70 77  1  0  0  0  0
 71 78  1  0  0  0  0
 71 79  1  0  0  0  0
 73 80  1  0  0  0  0
 73 81  1  0  0  0  0
 77 82  1  0  0  0  0
 77 83  2  0  0  0  0
 81 84  1  0  0  0  0
 81 85  2  0  0  0  0
 82 86  1  0  0  0  0
 84 87  1  0  0  0  0
 86 88  1  0  0  0  0
 86 89  1  0  0  0  0
 86 90  1  0  0  0  0
 87 91  1  0  0  0  0
 87 92  1  0  0  0  0
 87 93  1  0  0  0  0
 88 94  1  0  0  0  0
 88 95  1  0  0  0  0
 88 96  1  0  0  0  0
 89 97  1  0  0  0  0
 89 98  1  0  0  0  0
 89 99  1  0  0  0  0
 91100  1  0  0  0  0
 91101  1  0  0  0  0
 91102  1  0  0  0  0
 92103  1  0  0  0  0
 92104  1  0  0  0  0
 92105  1  0  0  0  0
  3106  1  0  0  0  0
106107  4  0  0  0  0
106108  4  0  0  0  0
107109  4  0  0  0  0
107110  1  0  0  0  0
108111  4  0  0  0  0
108112  1  0  0  0  0
109113  1  0  0  0  0
109114  4  0  0  0  0
111114  4  0  0  0  0
110115  4  0  0  0  0
110116  1  0  0  0  0
111117  1  0  0  0  0
112118  4  0  0  0  0
112119  1  0  0  0  0
114120  1  0  0  0  0
115121  2  0  0  0  0
115122  1  0  0  0  0
118123  2  0  0  0  0
118124  1  0  0  0  0
122125  1  0  0  0  0
122126  1  0  0  0  0
122127  1  0  0  0  0
125127  1  0  0  0  0
124128  1  0  0  0  0
124129  1  0  0  0  0
124130  1  0  0  0  0
128130  1  0  0  0  0
125131  1  0  0  0  0
125132  1  0  0  0  0
127133  1  0  0  0  0
127134  1  0  0  0  0
128135  1  0  0  0  0
128136  1  0  0  0  0
130137  1  0  0  0  0
130138  1  0  0  0  0
134139  1  0  0  0  0
134140  2  0  0  0  0
138141  1  0  0  0  0
138142  2  0  0  0  0
139143  1  0  0  0  0
141144  1  0  0  0  0
143145  1  0  0  0  0
143146  1  0  0  0  0
143147  1  0  0  0  0
144148  1  0  0  0  0
144149  1  0  0  0  0
144150  1  0  0  0  0
145151  1  0  0  0  0
145152  1  0  0  0  0
145153  1  0  0  0  0
146154  1  0  0  0  0
146155  1  0  0  0  0
146156  1  0  0  0  0
148157  1  0  0  0  0
148158  1  0  0  0  0
148159  1  0  0  0  0
149160  1  0  0  0  0
149161  1  0  0  0  0
149162  1  0  0  0  0
 19163  1  0  0  0  0
 22164  1  0  0  0  0
 42165  1  0  0  0  0
 45166  1  0  0  0  0
 18167  1  0  0  0  0
 23168  1  0  0  0  0
 41169  1  0  0  0  0
 46170  1  0  0  0  0
167171  1  0  0  0  0
171172  4  0  0  0  0
171173  4  0  0  0  0
172174  4  0  0  0  0
172175  1  0  0  0  0
173176  4  0  0  0  0
173177  1  0  0  0  0
174178  4  0  0  0  0
176178  4  0  0  0  0
174179  1  0  0  0  0
176180  1  0  0  0  0
178181  1  0  0  0  0
168182  1  0  0  0  0
182183  4  0  0  0  0
182184  4  0  0  0  0
183185  4  0  0  0  0
183186  1  0  0  0  0
184187  4  0  0  0  0
184188  1  0  0  0  0
185189  4  0  0  0  0
187189  4  0  0  0  0
185190  1  0  0  0  0
187191  1  0  0  0  0
189192  1  0  0  0  0
169193  1  0  0  0  0
193194  4  0  0  0  0
193195  4  0  0  0  0
194196  4  0  0  0  0
194197  1  0  0  0  0
195198  4  0  0  0  0
195199  1  0  0  0  0
196200  4  0  0  0  0
198200  4  0  0  0  0
196201  1  0  0  0  0
198202  1  0  0  0  0
200203  1  0  0  0  0
170204  1  0  0  0  0
204205  4  0  0  0  0
204206  4  0  0  0  0
205207  4  0  0  0  0
205208  1  0  0  0  0
206209  4  0  0  0  0
206210  1  0  0  0  0
207211  4  0  0  0  0
209211  4  0  0  0  0
207212  1  0  0  0  0
209213  1  0  0  0  0
211214  1  0  0  0  0
 47215  2  0  0  0  0
215216  4  0  0  0  0
216217  1  0  0  0  0
217218  2  0  0  0  0
218219  4  0  0  0  0
219220  4  0  0  0  0
216221  1  0  0  0  0
220221  4  0  0  0  0
221222  1  0  0  0  0
222223  1  0  0  0  0
223224  1  0  0  0  0
224225  4  0  0  0  0
225226  2  0  0  0  0
226227  1  0  0  0  0
224228  2  0  0  0  0
227228  1  0  0  0  0
217229  1  0  0  0  0
218230  1  0  0  0  0
219231  1  0  0  0  0
220232  1  0  0  0  0
222233  1  0  0  0  0
222234  1  0  0  0  0
223235  1  0  0  0  0
223236  1  0  0  0  0
225237  1  0  0  0  0
226238  1  0  0  0  0
228239  1  0  0  0  0
M  END
