
     RDKit          3D

 28 29  0  0  0  0  0  0  0  0999 V2000
   -1.9479    2.2260   -1.0632 N   0  0  0  0  0  1  0  0  0  0  0  0
   -2.6129    1.0920   -0.5106 C   0  0  0  0  0  0  0  0  0  0  0  0
   -3.9725    1.1873   -0.1897 C   0  0  0  0  0  0  0  0  0  0  0  0
   -4.6429    0.0955    0.3670 C   0  0  0  0  0  0  0  0  0  0  0  0
   -3.9570   -1.0960    0.6102 C   0  0  0  0  0  0  0  0  0  0  0  0
   -2.6000   -1.2009    0.2930 C   0  0  0  0  0  0  0  0  0  0  0  0
   -1.9171   -0.1146   -0.2817 C   0  0  0  0  0  0  0  0  0  0  0  0
   -0.4443   -0.2400   -0.5855 C   0  0  0  0  0  0  0  0  0  0  0  0
    0.3944    0.2421    0.6020 C   0  0  0  0  0  0  0  0  0  0  0  0
    1.8630    0.1204    0.2964 C   0  0  0  0  0  0  0  0  0  0  0  0
    2.5453    1.1749   -0.3327 C   0  0  0  0  0  0  0  0  0  0  0  0
    3.9021    1.0484   -0.6463 C   0  0  0  0  0  0  0  0  0  0  0  0
    4.5848   -0.1344   -0.3435 C   0  0  0  0  0  0  0  0  0  0  0  0
    6.2862   -0.2921   -0.7396 Cl  0  0  0  0  0  0  0  0  0  0  0  0
    3.9077   -1.1934    0.2702 C   0  0  0  0  0  0  0  0  0  0  0  0
    2.5509   -1.0698    0.5850 C   0  0  0  0  0  0  0  0  0  0  0  0
   -4.5100    2.1103   -0.3681 H   0  0  0  0  0  0  0  0  0  0  0  0
   -5.6935    0.1749    0.6146 H   0  0  0  0  0  0  0  0  0  0  0  0
   -4.4764   -1.9386    1.0483 H   0  0  0  0  0  0  0  0  0  0  0  0
   -2.0806   -2.1292    0.4969 H   0  0  0  0  0  0  0  0  0  0  0  0
   -0.1900    0.3495   -1.4933 H   0  0  0  0  0  0  0  0  0  0  0  0
   -0.1943   -1.3007   -0.8102 H   0  0  0  0  0  0  0  0  0  0  0  0
    0.1459    1.3014    0.8335 H   0  0  0  0  0  0  0  0  0  0  0  0
    0.1464   -0.3597    1.5043 H   0  0  0  0  0  0  0  0  0  0  0  0
    2.0262    2.0924   -0.5812 H   0  0  0  0  0  0  0  0  0  0  0  0
    4.4202    1.8682   -1.1274 H   0  0  0  0  0  0  0  0  0  0  0  0
    4.4302   -2.1131    0.5003 H   0  0  0  0  0  0  0  0  0  0  0  0
    2.0363   -1.9008    1.0515 H   0  0  0  0  0  0  0  0  0  0  0  0
  1  2  1  0
  2  3  2  0
  3  4  1  0
  4  5  2  0
  5  6  1  0
  6  7  2  0
  7  8  1  0
  8  9  1  0
  9 10  1  0
 10 11  1  0
 11 12  2  0
 12 13  1  0
 13 14  1  0
 13 15  2  0
 15 16  1  0
  7  2  1  0
 16 10  2  0
  3 17  1  0
  4 18  1  0
  5 19  1  0
  6 20  1  0
  8 21  1  0
  8 22  1  0
  9 23  1  0
  9 24  1  0
 11 25  1  0
 12 26  1  0
 15 27  1  0
 16 28  1  0
M  RAD  1   1   3
M  END
$$$$
