
     RDKit          3D

 28 29  0  0  0  0  0  0  0  0999 V2000
    2.7544   -1.7785    1.5166 N   0  0  0  0  0  1  0  0  0  0  0  0
    2.5205   -0.7548    0.5518 C   0  0  0  0  0  0  0  0  0  0  0  0
    3.3836    0.3464    0.5020 C   0  0  0  0  0  0  0  0  0  0  0  0
    3.1691    1.3679   -0.4263 C   0  0  0  0  0  0  0  0  0  0  0  0
    2.0902    1.2949   -1.3093 C   0  0  0  0  0  0  0  0  0  0  0  0
    1.2246    0.1989   -1.2685 C   0  0  0  0  0  0  0  0  0  0  0  0
    1.4328   -0.8396   -0.3434 C   0  0  0  0  0  0  0  0  0  0  0  0
    0.4558   -1.9915   -0.2840 C   0  0  0  0  0  0  0  0  0  0  0  0
   -0.5939   -1.7954    0.8192 C   0  0  0  0  0  0  0  0  0  0  0  0
   -1.4644   -0.5931    0.5556 C   0  0  0  0  0  0  0  0  0  0  0  0
   -1.1786    0.6388    1.1679 C   0  0  0  0  0  0  0  0  0  0  0  0
   -1.9578    1.7642    0.8843 C   0  0  0  0  0  0  0  0  0  0  0  0
   -3.0248    1.6700   -0.0151 C   0  0  0  0  0  0  0  0  0  0  0  0
   -3.9990    3.0840   -0.3727 Cl  0  0  0  0  0  0  0  0  0  0  0  0
   -3.3106    0.4483   -0.6334 C   0  0  0  0  0  0  0  0  0  0  0  0
   -2.5320   -0.6787   -0.3529 C   0  0  0  0  0  0  0  0  0  0  0  0
    4.2201    0.4132    1.1865 H   0  0  0  0  0  0  0  0  0  0  0  0
    3.8377    2.2184   -0.4588 H   0  0  0  0  0  0  0  0  0  0  0  0
    1.9216    2.0904   -2.0236 H   0  0  0  0  0  0  0  0  0  0  0  0
    0.3849    0.1647   -1.9519 H   0  0  0  0  0  0  0  0  0  0  0  0
   -0.0542   -2.1189   -1.2645 H   0  0  0  0  0  0  0  0  0  0  0  0
    1.0065   -2.9380   -0.0950 H   0  0  0  0  0  0  0  0  0  0  0  0
   -1.2320   -2.7043    0.8718 H   0  0  0  0  0  0  0  0  0  0  0  0
   -0.0911   -1.7019    1.8066 H   0  0  0  0  0  0  0  0  0  0  0  0
   -0.3467    0.7296    1.8556 H   0  0  0  0  0  0  0  0  0  0  0  0
   -1.7285    2.7091    1.3601 H   0  0  0  0  0  0  0  0  0  0  0  0
   -4.1319    0.3719   -1.3345 H   0  0  0  0  0  0  0  0  0  0  0  0
   -2.7563   -1.6159   -0.8470 H   0  0  0  0  0  0  0  0  0  0  0  0
  1  2  1  0
  2  3  2  0
  3  4  1  0
  4  5  2  0
  5  6  1  0
  6  7  2  0
  7  8  1  0
  8  9  1  0
  9 10  1  0
 10 11  1  0
 11 12  2  0
 12 13  1  0
 13 14  1  0
 13 15  2  0
 15 16  1  0
  7  2  1  0
 16 10  2  0
  3 17  1  0
  4 18  1  0
  5 19  1  0
  6 20  1  0
  8 21  1  0
  8 22  1  0
  9 23  1  0
  9 24  1  0
 11 25  1  0
 12 26  1  0
 15 27  1  0
 16 28  1  0
M  RAD  1   1   3
M  END
$$$$
