
     RDKit          3D

 28 29  0  0  0  0  0  0  0  0999 V2000
   -2.0258    0.1405   -2.3992 N   0  0  0  0  0  1  0  0  0  0  0  0
   -2.6384   -0.1335   -1.1409 C   0  0  0  0  0  0  0  0  0  0  0  0
   -4.0253    0.0087   -1.0116 C   0  0  0  0  0  0  0  0  0  0  0  0
   -4.6473   -0.2389    0.2145 C   0  0  0  0  0  0  0  0  0  0  0  0
   -3.8859   -0.6254    1.3191 C   0  0  0  0  0  0  0  0  0  0  0  0
   -2.5011   -0.7702    1.1998 C   0  0  0  0  0  0  0  0  0  0  0  0
   -1.8645   -0.5389   -0.0322 C   0  0  0  0  0  0  0  0  0  0  0  0
   -0.3643   -0.6696   -0.1292 C   0  0  0  0  0  0  0  0  0  0  0  0
    0.3130    0.6779    0.1378 C   0  0  0  0  0  0  0  0  0  0  0  0
    1.8089    0.5473    0.0368 C   0  0  0  0  0  0  0  0  0  0  0  0
    2.4528    0.7162   -1.2001 C   0  0  0  0  0  0  0  0  0  0  0  0
    3.8390    0.5620   -1.2996 C   0  0  0  0  0  0  0  0  0  0  0  0
    4.5908    0.2286   -0.1681 C   0  0  0  0  0  0  0  0  0  0  0  0
    6.3294    0.0335   -0.2953 Cl  0  0  0  0  0  0  0  0  0  0  0  0
    3.9539    0.0453    1.0637 C   0  0  0  0  0  0  0  0  0  0  0  0
    2.5679    0.1988    1.1663 C   0  0  0  0  0  0  0  0  0  0  0  0
   -4.6222    0.3155   -1.8614 H   0  0  0  0  0  0  0  0  0  0  0  0
   -5.7195   -0.1261    0.3095 H   0  0  0  0  0  0  0  0  0  0  0  0
   -4.3687   -0.8098    2.2702 H   0  0  0  0  0  0  0  0  0  0  0  0
   -1.9241   -1.0616    2.0689 H   0  0  0  0  0  0  0  0  0  0  0  0
   -0.0778   -1.0450   -1.1358 H   0  0  0  0  0  0  0  0  0  0  0  0
   -0.0023   -1.4196    0.6088 H   0  0  0  0  0  0  0  0  0  0  0  0
    0.0344    1.0427    1.1512 H   0  0  0  0  0  0  0  0  0  0  0  0
   -0.0479    1.4328   -0.5953 H   0  0  0  0  0  0  0  0  0  0  0  0
    1.8813    0.9651   -2.0858 H   0  0  0  0  0  0  0  0  0  0  0  0
    4.3267    0.6983   -2.2565 H   0  0  0  0  0  0  0  0  0  0  0  0
    4.5307   -0.2193    1.9407 H   0  0  0  0  0  0  0  0  0  0  0  0
    2.0861    0.0447    2.1239 H   0  0  0  0  0  0  0  0  0  0  0  0
  1  2  1  0
  2  3  2  0
  3  4  1  0
  4  5  2  0
  5  6  1  0
  6  7  2  0
  7  8  1  0
  8  9  1  0
  9 10  1  0
 10 11  1  0
 11 12  2  0
 12 13  1  0
 13 14  1  0
 13 15  2  0
 15 16  1  0
  7  2  1  0
 16 10  2  0
  3 17  1  0
  4 18  1  0
  5 19  1  0
  6 20  1  0
  8 21  1  0
  8 22  1  0
  9 23  1  0
  9 24  1  0
 11 25  1  0
 12 26  1  0
 15 27  1  0
 16 28  1  0
M  RAD  1   1   3
M  END
$$$$
