
     RDKit          3D

 28 29  0  0  0  0  0  0  0  0999 V2000
   -2.0687   -2.2670    0.7725 N   0  0  0  0  0  1  0  0  0  0  0  0
   -2.6689   -1.0125    0.4572 C   0  0  0  0  0  0  0  0  0  0  0  0
   -4.0360   -0.9659    0.1581 C   0  0  0  0  0  0  0  0  0  0  0  0
   -4.6443    0.2483   -0.1690 C   0  0  0  0  0  0  0  0  0  0  0  0
   -3.8886    1.4218   -0.2035 C   0  0  0  0  0  0  0  0  0  0  0  0
   -2.5236    1.3854    0.0937 C   0  0  0  0  0  0  0  0  0  0  0  0
   -1.9022    0.1725    0.4392 C   0  0  0  0  0  0  0  0  0  0  0  0
   -0.4205    0.1519    0.7242 C   0  0  0  0  0  0  0  0  0  0  0  0
    0.3703   -0.1480   -0.5527 C   0  0  0  0  0  0  0  0  0  0  0  0
    1.8476   -0.1723   -0.2665 C   0  0  0  0  0  0  0  0  0  0  0  0
    2.6046    1.0083   -0.3460 C   0  0  0  0  0  0  0  0  0  0  0  0
    3.9706    0.9907   -0.0476 C   0  0  0  0  0  0  0  0  0  0  0  0
    4.5884   -0.2024    0.3415 C   0  0  0  0  0  0  0  0  0  0  0  0
    6.3016   -0.2220    0.7175 Cl  0  0  0  0  0  0  0  0  0  0  0  0
    3.8373   -1.3786    0.4362 C   0  0  0  0  0  0  0  0  0  0  0  0
    2.4712   -1.3641    0.1384 C   0  0  0  0  0  0  0  0  0  0  0  0
   -4.6277   -1.8727    0.1751 H   0  0  0  0  0  0  0  0  0  0  0  0
   -5.7011    0.2787   -0.4008 H   0  0  0  0  0  0  0  0  0  0  0  0
   -4.3602    2.3606   -0.4642 H   0  0  0  0  0  0  0  0  0  0  0  0
   -1.9500    2.3033    0.0531 H   0  0  0  0  0  0  0  0  0  0  0  0
   -0.1017    1.1353    1.1360 H   0  0  0  0  0  0  0  0  0  0  0  0
   -0.1913   -0.6109    1.5000 H   0  0  0  0  0  0  0  0  0  0  0  0
    0.0530   -1.1288   -0.9708 H   0  0  0  0  0  0  0  0  0  0  0  0
    0.1482    0.6255   -1.3209 H   0  0  0  0  0  0  0  0  0  0  0  0
    2.1367    1.9407   -0.6368 H   0  0  0  0  0  0  0  0  0  0  0  0
    4.5464    1.9049   -0.1157 H   0  0  0  0  0  0  0  0  0  0  0  0
    4.3097   -2.3030    0.7434 H   0  0  0  0  0  0  0  0  0  0  0  0
    1.8992   -2.2798    0.2249 H   0  0  0  0  0  0  0  0  0  0  0  0
  1  2  1  0
  2  3  2  0
  3  4  1  0
  4  5  2  0
  5  6  1  0
  6  7  2  0
  7  8  1  0
  8  9  1  0
  9 10  1  0
 10 11  1  0
 11 12  2  0
 12 13  1  0
 13 14  1  0
 13 15  2  0
 15 16  1  0
  7  2  1  0
 16 10  2  0
  3 17  1  0
  4 18  1  0
  5 19  1  0
  6 20  1  0
  8 21  1  0
  8 22  1  0
  9 23  1  0
  9 24  1  0
 11 25  1  0
 12 26  1  0
 15 27  1  0
 16 28  1  0
M  RAD  1   1   3
M  END
$$$$
