
     RDKit          3D

 28 29  0  0  0  0  0  0  0  0999 V2000
   -1.8048    2.6435   -0.0597 N   0  0  0  0  0  1  0  0  0  0  0  0
   -2.5352    1.4228   -0.1586 C   0  0  0  0  0  0  0  0  0  0  0  0
   -3.9190    1.4362    0.0545 C   0  0  0  0  0  0  0  0  0  0  0  0
   -4.6548    0.2512   -0.0216 C   0  0  0  0  0  0  0  0  0  0  0  0
   -4.0108   -0.9544   -0.3064 C   0  0  0  0  0  0  0  0  0  0  0  0
   -2.6301   -0.9778   -0.5208 C   0  0  0  0  0  0  0  0  0  0  0  0
   -1.8801    0.2099   -0.4622 C   0  0  0  0  0  0  0  0  0  0  0  0
   -0.3857    0.1554   -0.6647 C   0  0  0  0  0  0  0  0  0  0  0  0
    0.3345   -0.0167    0.6761 C   0  0  0  0  0  0  0  0  0  0  0  0
    1.8248   -0.0670    0.4733 C   0  0  0  0  0  0  0  0  0  0  0  0
    2.4661   -1.2928    0.2299 C   0  0  0  0  0  0  0  0  0  0  0  0
    3.8462   -1.3342    0.0088 C   0  0  0  0  0  0  0  0  0  0  0  0
    4.5941   -0.1522    0.0191 C   0  0  0  0  0  0  0  0  0  0  0  0
    6.3249   -0.2059   -0.2606 Cl  0  0  0  0  0  0  0  0  0  0  0  0
    3.9594    1.0733    0.2470 C   0  0  0  0  0  0  0  0  0  0  0  0
    2.5794    1.1178    0.4685 C   0  0  0  0  0  0  0  0  0  0  0  0
   -4.4251    2.3658    0.2834 H   0  0  0  0  0  0  0  0  0  0  0  0
   -5.7241    0.2668    0.1454 H   0  0  0  0  0  0  0  0  0  0  0  0
   -4.5814   -1.8727   -0.3578 H   0  0  0  0  0  0  0  0  0  0  0  0
   -2.1446   -1.9229   -0.7313 H   0  0  0  0  0  0  0  0  0  0  0  0
   -0.0343    1.0829   -1.1674 H   0  0  0  0  0  0  0  0  0  0  0  0
   -0.1266   -0.6926   -1.3368 H   0  0  0  0  0  0  0  0  0  0  0  0
    0.0763    0.8271    1.3535 H   0  0  0  0  0  0  0  0  0  0  0  0
   -0.0104   -0.9527    1.1687 H   0  0  0  0  0  0  0  0  0  0  0  0
    1.8974   -2.2143    0.2098 H   0  0  0  0  0  0  0  0  0  0  0  0
    4.3320   -2.2843   -0.1738 H   0  0  0  0  0  0  0  0  0  0  0  0
    4.5330    1.9914    0.2493 H   0  0  0  0  0  0  0  0  0  0  0  0
    2.0989    2.0741    0.6342 H   0  0  0  0  0  0  0  0  0  0  0  0
  1  2  1  0
  2  3  2  0
  3  4  1  0
  4  5  2  0
  5  6  1  0
  6  7  2  0
  7  8  1  0
  8  9  1  0
  9 10  1  0
 10 11  1  0
 11 12  2  0
 12 13  1  0
 13 14  1  0
 13 15  2  0
 15 16  1  0
  7  2  1  0
 16 10  2  0
  3 17  1  0
  4 18  1  0
  5 19  1  0
  6 20  1  0
  8 21  1  0
  8 22  1  0
  9 23  1  0
  9 24  1  0
 11 25  1  0
 12 26  1  0
 15 27  1  0
 16 28  1  0
M  RAD  1   1   3
M  END
$$$$
