
     RDKit          3D

 28 29  0  0  0  0  0  0  0  0999 V2000
   -2.6952   -0.9322    2.1287 N   0  0  0  0  0  1  0  0  0  0  0  0
   -2.4945   -0.2912    0.8709 C   0  0  0  0  0  0  0  0  0  0  0  0
   -3.2800    0.8187    0.5372 C   0  0  0  0  0  0  0  0  0  0  0  0
   -3.0948    1.4710   -0.6841 C   0  0  0  0  0  0  0  0  0  0  0  0
   -2.1228    1.0182   -1.5781 C   0  0  0  0  0  0  0  0  0  0  0  0
   -1.3355   -0.0898   -1.2549 C   0  0  0  0  0  0  0  0  0  0  0  0
   -1.5159   -0.7597   -0.0316 C   0  0  0  0  0  0  0  0  0  0  0  0
   -0.6199   -1.9258    0.3185 C   0  0  0  0  0  0  0  0  0  0  0  0
    0.5515   -1.4986    1.2144 C   0  0  0  0  0  0  0  0  0  0  0  0
    1.4701   -0.5321    0.5111 C   0  0  0  0  0  0  0  0  0  0  0  0
    1.3362    0.8517    0.7152 C   0  0  0  0  0  0  0  0  0  0  0  0
    2.1569    1.7483    0.0247 C   0  0  0  0  0  0  0  0  0  0  0  0
    3.1138    1.2716   -0.8771 C   0  0  0  0  0  0  0  0  0  0  0  0
    4.1400    2.3984   -1.7453 Cl  0  0  0  0  0  0  0  0  0  0  0  0
    3.2477   -0.1044   -1.0901 C   0  0  0  0  0  0  0  0  0  0  0  0
    2.4273   -1.0035   -0.4021 C   0  0  0  0  0  0  0  0  0  0  0  0
   -4.0329    1.1793    1.2269 H   0  0  0  0  0  0  0  0  0  0  0  0
   -3.7029    2.3302   -0.9360 H   0  0  0  0  0  0  0  0  0  0  0  0
   -1.9762    1.5288   -2.5211 H   0  0  0  0  0  0  0  0  0  0  0  0
   -0.5770   -0.4195   -1.9543 H   0  0  0  0  0  0  0  0  0  0  0  0
   -1.2116   -2.7058    0.8443 H   0  0  0  0  0  0  0  0  0  0  0  0
   -0.2263   -2.4040   -0.6056 H   0  0  0  0  0  0  0  0  0  0  0  0
    1.1274   -2.4036    1.5065 H   0  0  0  0  0  0  0  0  0  0  0  0
    0.1635   -1.0508    2.1555 H   0  0  0  0  0  0  0  0  0  0  0  0
    0.5900    1.2355    1.3998 H   0  0  0  0  0  0  0  0  0  0  0  0
    2.0449    2.8127    0.1878 H   0  0  0  0  0  0  0  0  0  0  0  0
    3.9832   -0.4777   -1.7913 H   0  0  0  0  0  0  0  0  0  0  0  0
    2.5329   -2.0658   -0.5845 H   0  0  0  0  0  0  0  0  0  0  0  0
  1  2  1  0
  2  3  2  0
  3  4  1  0
  4  5  2  0
  5  6  1  0
  6  7  2  0
  7  8  1  0
  8  9  1  0
  9 10  1  0
 10 11  1  0
 11 12  2  0
 12 13  1  0
 13 14  1  0
 13 15  2  0
 15 16  1  0
  7  2  1  0
 16 10  2  0
  3 17  1  0
  4 18  1  0
  5 19  1  0
  6 20  1  0
  8 21  1  0
  8 22  1  0
  9 23  1  0
  9 24  1  0
 11 25  1  0
 12 26  1  0
 15 27  1  0
 16 28  1  0
M  RAD  1   1   3
M  END
$$$$
