
     RDKit          3D

 28 29  0  0  0  0  0  0  0  0999 V2000
   -2.0001   -1.2256    2.2644 N   0  0  0  0  0  1  0  0  0  0  0  0
   -2.6223   -0.3891    1.2914 C   0  0  0  0  0  0  0  0  0  0  0  0
   -3.9251    0.0705    1.5193 C   0  0  0  0  0  0  0  0  0  0  0  0
   -4.5508    0.9036    0.5888 C   0  0  0  0  0  0  0  0  0  0  0  0
   -3.8761    1.2857   -0.5723 C   0  0  0  0  0  0  0  0  0  0  0  0
   -2.5757    0.8319   -0.8087 C   0  0  0  0  0  0  0  0  0  0  0  0
   -1.9400   -0.0192    0.1123 C   0  0  0  0  0  0  0  0  0  0  0  0
   -0.5237   -0.4701   -0.1481 C   0  0  0  0  0  0  0  0  0  0  0  0
    0.4765    0.4918    0.5002 C   0  0  0  0  0  0  0  0  0  0  0  0
    1.8885    0.0390    0.2433 C   0  0  0  0  0  0  0  0  0  0  0  0
    2.5711    0.4648   -0.9081 C   0  0  0  0  0  0  0  0  0  0  0  0
    3.8711    0.0170   -1.1625 C   0  0  0  0  0  0  0  0  0  0  0  0
    4.4951   -0.8662   -0.2752 C   0  0  0  0  0  0  0  0  0  0  0  0
    6.1251   -1.4286   -0.5971 Cl  0  0  0  0  0  0  0  0  0  0  0  0
    3.8155   -1.3051    0.8660 C   0  0  0  0  0  0  0  0  0  0  0  0
    2.5155   -0.8589    1.1230 C   0  0  0  0  0  0  0  0  0  0  0  0
   -4.4526   -0.2149    2.4209 H   0  0  0  0  0  0  0  0  0  0  0  0
   -5.5575    1.2573    0.7704 H   0  0  0  0  0  0  0  0  0  0  0  0
   -4.3599    1.9371   -1.2887 H   0  0  0  0  0  0  0  0  0  0  0  0
   -2.0630    1.1453   -1.7098 H   0  0  0  0  0  0  0  0  0  0  0  0
   -0.3377   -0.5159   -1.2441 H   0  0  0  0  0  0  0  0  0  0  0  0
   -0.3714   -1.4982    0.2470 H   0  0  0  0  0  0  0  0  0  0  0  0
    0.2928    0.5442    1.5960 H   0  0  0  0  0  0  0  0  0  0  0  0
    0.3293    1.5162    0.0916 H   0  0  0  0  0  0  0  0  0  0  0  0
    2.0961    1.1411   -1.6081 H   0  0  0  0  0  0  0  0  0  0  0  0
    4.3906    0.3540   -2.0505 H   0  0  0  0  0  0  0  0  0  0  0  0
    4.2918   -1.9938    1.5520 H   0  0  0  0  0  0  0  0  0  0  0  0
    1.9970   -1.2138    2.0052 H   0  0  0  0  0  0  0  0  0  0  0  0
  1  2  1  0
  2  3  2  0
  3  4  1  0
  4  5  2  0
  5  6  1  0
  6  7  2  0
  7  8  1  0
  8  9  1  0
  9 10  1  0
 10 11  1  0
 11 12  2  0
 12 13  1  0
 13 14  1  0
 13 15  2  0
 15 16  1  0
  7  2  1  0
 16 10  2  0
  3 17  1  0
  4 18  1  0
  5 19  1  0
  6 20  1  0
  8 21  1  0
  8 22  1  0
  9 23  1  0
  9 24  1  0
 11 25  1  0
 12 26  1  0
 15 27  1  0
 16 28  1  0
M  RAD  1   1   3
M  END
$$$$
