
     RDKit          3D

 28 29  0  0  0  0  0  0  0  0999 V2000
   -2.5800    0.3317   -2.5045 N   0  0  0  0  0  1  0  0  0  0  0  0
   -2.4425    0.0134   -1.1214 C   0  0  0  0  0  0  0  0  0  0  0  0
   -3.3960    0.4891   -0.2133 C   0  0  0  0  0  0  0  0  0  0  0  0
   -3.2772    0.2006    1.1483 C   0  0  0  0  0  0  0  0  0  0  0  0
   -2.2043   -0.5642    1.6099 C   0  0  0  0  0  0  0  0  0  0  0  0
   -1.2489   -1.0450    0.7110 C   0  0  0  0  0  0  0  0  0  0  0  0
   -1.3599   -0.7675   -0.6632 C   0  0  0  0  0  0  0  0  0  0  0  0
   -0.2885   -1.2563   -1.6109 C   0  0  0  0  0  0  0  0  0  0  0  0
    0.7511   -0.1668   -1.9104 C   0  0  0  0  0  0  0  0  0  0  0  0
    1.5144    0.2331   -0.6734 C   0  0  0  0  0  0  0  0  0  0  0  0
    2.5769   -0.5603   -0.2108 C   0  0  0  0  0  0  0  0  0  0  0  0
    3.2548   -0.2157    0.9625 C   0  0  0  0  0  0  0  0  0  0  0  0
    2.8725    0.9186    1.6862 C   0  0  0  0  0  0  0  0  0  0  0  0
    3.7203    1.3461    3.1610 Cl  0  0  0  0  0  0  0  0  0  0  0  0
    1.8098    1.7085    1.2356 C   0  0  0  0  0  0  0  0  0  0  0  0
    1.1312    1.3674    0.0620 C   0  0  0  0  0  0  0  0  0  0  0  0
   -4.2287    1.0869   -0.5623 H   0  0  0  0  0  0  0  0  0  0  0  0
   -4.0156    0.5730    1.8465 H   0  0  0  0  0  0  0  0  0  0  0  0
   -2.1102   -0.7813    2.6660 H   0  0  0  0  0  0  0  0  0  0  0  0
   -0.4157   -1.6255    1.0879 H   0  0  0  0  0  0  0  0  0  0  0  0
    0.2212   -2.1519   -1.1919 H   0  0  0  0  0  0  0  0  0  0  0  0
   -0.7555   -1.5825   -2.5651 H   0  0  0  0  0  0  0  0  0  0  0  0
    0.2514    0.7182   -2.3616 H   0  0  0  0  0  0  0  0  0  0  0  0
    1.4642   -0.5520   -2.6714 H   0  0  0  0  0  0  0  0  0  0  0  0
    2.8750   -1.4475   -0.7557 H   0  0  0  0  0  0  0  0  0  0  0  0
    4.0730   -0.8332    1.3104 H   0  0  0  0  0  0  0  0  0  0  0  0
    1.5060    2.5835    1.7959 H   0  0  0  0  0  0  0  0  0  0  0  0
    0.3011    1.9801   -0.2674 H   0  0  0  0  0  0  0  0  0  0  0  0
  1  2  1  0
  2  3  2  0
  3  4  1  0
  4  5  2  0
  5  6  1  0
  6  7  2  0
  7  8  1  0
  8  9  1  0
  9 10  1  0
 10 11  1  0
 11 12  2  0
 12 13  1  0
 13 14  1  0
 13 15  2  0
 15 16  1  0
  7  2  1  0
 16 10  2  0
  3 17  1  0
  4 18  1  0
  5 19  1  0
  6 20  1  0
  8 21  1  0
  8 22  1  0
  9 23  1  0
  9 24  1  0
 11 25  1  0
 12 26  1  0
 15 27  1  0
 16 28  1  0
M  RAD  1   1   3
M  END
$$$$
