
     RDKit          3D

 28 29  0  0  0  0  0  0  0  0999 V2000
    2.5915   -2.0280   -1.4867 N   0  0  0  0  0  1  0  0  0  0  0  0
    2.4495   -0.8203   -0.7421 C   0  0  0  0  0  0  0  0  0  0  0  0
    3.2582    0.2774   -1.0606 C   0  0  0  0  0  0  0  0  0  0  0  0
    3.1302    1.4752   -0.3534 C   0  0  0  0  0  0  0  0  0  0  0  0
    2.1925    1.5829    0.6753 C   0  0  0  0  0  0  0  0  0  0  0  0
    1.3824    0.4924    1.0018 C   0  0  0  0  0  0  0  0  0  0  0  0
    1.5055   -0.7214    0.3023 C   0  0  0  0  0  0  0  0  0  0  0  0
    0.5852   -1.8722    0.6396 C   0  0  0  0  0  0  0  0  0  0  0  0
   -0.6189   -1.9396   -0.3107 C   0  0  0  0  0  0  0  0  0  0  0  0
   -1.4986   -0.7217   -0.1862 C   0  0  0  0  0  0  0  0  0  0  0  0
   -2.4208   -0.6203    0.8681 C   0  0  0  0  0  0  0  0  0  0  0  0
   -3.2036    0.5293    1.0115 C   0  0  0  0  0  0  0  0  0  0  0  0
   -3.0665    1.5886    0.1084 C   0  0  0  0  0  0  0  0  0  0  0  0
   -4.0452    3.0323    0.2933 Cl  0  0  0  0  0  0  0  0  0  0  0  0
   -2.1440    1.4977   -0.9390 C   0  0  0  0  0  0  0  0  0  0  0  0
   -1.3610    0.3489   -1.0858 C   0  0  0  0  0  0  0  0  0  0  0  0
    3.9846    0.2038   -1.8602 H   0  0  0  0  0  0  0  0  0  0  0  0
    3.7559    2.3216   -0.6055 H   0  0  0  0  0  0  0  0  0  0  0  0
    2.0901    2.5138    1.2179 H   0  0  0  0  0  0  0  0  0  0  0  0
    0.6511    0.5975    1.7938 H   0  0  0  0  0  0  0  0  0  0  0  0
    1.1473   -2.8289    0.5794 H   0  0  0  0  0  0  0  0  0  0  0  0
    0.2264   -1.7876    1.6892 H   0  0  0  0  0  0  0  0  0  0  0  0
   -0.2667   -2.0589   -1.3587 H   0  0  0  0  0  0  0  0  0  0  0  0
   -1.2146   -2.8469   -0.0700 H   0  0  0  0  0  0  0  0  0  0  0  0
   -2.5282   -1.4287    1.5808 H   0  0  0  0  0  0  0  0  0  0  0  0
   -3.9123    0.5974    1.8270 H   0  0  0  0  0  0  0  0  0  0  0  0
   -2.0294    2.3177   -1.6364 H   0  0  0  0  0  0  0  0  0  0  0  0
   -0.6407    0.2980   -1.8930 H   0  0  0  0  0  0  0  0  0  0  0  0
  1  2  1  0
  2  3  2  0
  3  4  1  0
  4  5  2  0
  5  6  1  0
  6  7  2  0
  7  8  1  0
  8  9  1  0
  9 10  1  0
 10 11  1  0
 11 12  2  0
 12 13  1  0
 13 14  1  0
 13 15  2  0
 15 16  1  0
  7  2  1  0
 16 10  2  0
  3 17  1  0
  4 18  1  0
  5 19  1  0
  6 20  1  0
  8 21  1  0
  8 22  1  0
  9 23  1  0
  9 24  1  0
 11 25  1  0
 12 26  1  0
 15 27  1  0
 16 28  1  0
M  RAD  1   1   3
M  END
$$$$
