
     RDKit          3D

 28 29  0  0  0  0  0  0  0  0999 V2000
   -1.9910   -2.4125   -0.3856 N   0  0  0  0  0  1  0  0  0  0  0  0
   -2.6297   -1.1383   -0.3390 C   0  0  0  0  0  0  0  0  0  0  0  0
   -4.0089   -1.0743   -0.1060 C   0  0  0  0  0  0  0  0  0  0  0  0
   -4.6554    0.1622   -0.0405 C   0  0  0  0  0  0  0  0  0  0  0  0
   -3.9262    1.3418   -0.2028 C   0  0  0  0  0  0  0  0  0  0  0  0
   -2.5493    1.2880   -0.4360 C   0  0  0  0  0  0  0  0  0  0  0  0
   -1.8890    0.0497   -0.5193 C   0  0  0  0  0  0  0  0  0  0  0  0
   -0.3965    0.0171   -0.7391 C   0  0  0  0  0  0  0  0  0  0  0  0
    0.3456   -0.0117    0.6005 C   0  0  0  0  0  0  0  0  0  0  0  0
    1.8339   -0.0483    0.3801 C   0  0  0  0  0  0  0  0  0  0  0  0
    2.5623    1.1468    0.2605 C   0  0  0  0  0  0  0  0  0  0  0  0
    3.9398    1.1114    0.0227 C   0  0  0  0  0  0  0  0  0  0  0  0
    4.5980   -0.1160   -0.1074 C   0  0  0  0  0  0  0  0  0  0  0  0
    6.3256   -0.1584   -0.4078 Cl  0  0  0  0  0  0  0  0  0  0  0  0
    3.8759   -1.3095   -0.0033 C   0  0  0  0  0  0  0  0  0  0  0  0
    2.4984   -1.2773    0.2345 C   0  0  0  0  0  0  0  0  0  0  0  0
   -4.5805   -1.9841    0.0286 H   0  0  0  0  0  0  0  0  0  0  0  0
   -5.7215    0.2063    0.1412 H   0  0  0  0  0  0  0  0  0  0  0  0
   -4.4276    2.2992   -0.1445 H   0  0  0  0  0  0  0  0  0  0  0  0
   -1.9970    2.2127   -0.5502 H   0  0  0  0  0  0  0  0  0  0  0  0
   -0.0808    0.9127   -1.3191 H   0  0  0  0  0  0  0  0  0  0  0  0
   -0.1189   -0.8727   -1.3454 H   0  0  0  0  0  0  0  0  0  0  0  0
    0.0753    0.8873    1.1975 H   0  0  0  0  0  0  0  0  0  0  0  0
    0.0311   -0.9036    1.1863 H   0  0  0  0  0  0  0  0  0  0  0  0
    2.0634    2.1039    0.3498 H   0  0  0  0  0  0  0  0  0  0  0  0
    4.4933    2.0378   -0.0638 H   0  0  0  0  0  0  0  0  0  0  0  0
    4.3798   -2.2617   -0.1100 H   0  0  0  0  0  0  0  0  0  0  0  0
    1.9495   -2.2084    0.3034 H   0  0  0  0  0  0  0  0  0  0  0  0
  1  2  1  0
  2  3  2  0
  3  4  1  0
  4  5  2  0
  5  6  1  0
  6  7  2  0
  7  8  1  0
  8  9  1  0
  9 10  1  0
 10 11  1  0
 11 12  2  0
 12 13  1  0
 13 14  1  0
 13 15  2  0
 15 16  1  0
  7  2  1  0
 16 10  2  0
  3 17  1  0
  4 18  1  0
  5 19  1  0
  6 20  1  0
  8 21  1  0
  8 22  1  0
  9 23  1  0
  9 24  1  0
 11 25  1  0
 12 26  1  0
 15 27  1  0
 16 28  1  0
M  RAD  1   1   3
M  END
$$$$
