
     RDKit          3D

 28 29  0  0  0  0  0  0  0  0999 V2000
   -2.0569    2.3716   -0.0350 N   0  0  0  0  0  1  0  0  0  0  0  0
   -2.6643    1.0825    0.0205 C   0  0  0  0  0  0  0  0  0  0  0  0
   -4.0273    0.9828    0.3248 C   0  0  0  0  0  0  0  0  0  0  0  0
   -4.6422   -0.2691    0.4004 C   0  0  0  0  0  0  0  0  0  0  0  0
   -3.8971   -1.4286    0.1769 C   0  0  0  0  0  0  0  0  0  0  0  0
   -2.5362   -1.3392   -0.1277 C   0  0  0  0  0  0  0  0  0  0  0  0
   -1.9084   -0.0847   -0.2218 C   0  0  0  0  0  0  0  0  0  0  0  0
   -0.4308   -0.0141   -0.5195 C   0  0  0  0  0  0  0  0  0  0  0  0
    0.3808    0.0073    0.7792 C   0  0  0  0  0  0  0  0  0  0  0  0
    1.8541    0.0819    0.4812 C   0  0  0  0  0  0  0  0  0  0  0  0
    2.6010   -1.0939    0.3001 C   0  0  0  0  0  0  0  0  0  0  0  0
    3.9628   -1.0227   -0.0095 C   0  0  0  0  0  0  0  0  0  0  0  0
    4.5861    0.2216   -0.1503 C   0  0  0  0  0  0  0  0  0  0  0  0
    6.2940    0.3088   -0.5408 Cl  0  0  0  0  0  0  0  0  0  0  0  0
    3.8448    1.3962    0.0149 C   0  0  0  0  0  0  0  0  0  0  0  0
    2.4829    1.3281    0.3246 C   0  0  0  0  0  0  0  0  0  0  0  0
   -4.6107    1.8768    0.5071 H   0  0  0  0  0  0  0  0  0  0  0  0
   -5.6959   -0.3408    0.6374 H   0  0  0  0  0  0  0  0  0  0  0  0
   -4.3737   -2.3981    0.2430 H   0  0  0  0  0  0  0  0  0  0  0  0
   -1.9706   -2.2487   -0.2889 H   0  0  0  0  0  0  0  0  0  0  0  0
   -0.1270   -0.8915   -1.1327 H   0  0  0  0  0  0  0  0  0  0  0  0
   -0.2055    0.8927   -1.1222 H   0  0  0  0  0  0  0  0  0  0  0  0
    0.0786    0.8809    1.3980 H   0  0  0  0  0  0  0  0  0  0  0  0
    0.1624   -0.9083    1.3722 H   0  0  0  0  0  0  0  0  0  0  0  0
    2.1286   -2.0636    0.3970 H   0  0  0  0  0  0  0  0  0  0  0  0
    4.5309   -1.9345   -0.1431 H   0  0  0  0  0  0  0  0  0  0  0  0
    4.3214    2.3614   -0.0997 H   0  0  0  0  0  0  0  0  0  0  0  0
    1.9183    2.2451    0.4405 H   0  0  0  0  0  0  0  0  0  0  0  0
  1  2  1  0
  2  3  2  0
  3  4  1  0
  4  5  2  0
  5  6  1  0
  6  7  2  0
  7  8  1  0
  8  9  1  0
  9 10  1  0
 10 11  1  0
 11 12  2  0
 12 13  1  0
 13 14  1  0
 13 15  2  0
 15 16  1  0
  7  2  1  0
 16 10  2  0
  3 17  1  0
  4 18  1  0
  5 19  1  0
  6 20  1  0
  8 21  1  0
  8 22  1  0
  9 23  1  0
  9 24  1  0
 11 25  1  0
 12 26  1  0
 15 27  1  0
 16 28  1  0
M  RAD  1   1   3
M  END
$$$$
