
     RDKit          3D

 28 29  0  0  0  0  0  0  0  0999 V2000
   -1.6558   -1.9761   -1.6840 N   0  0  0  0  0  1  0  0  0  0  0  0
   -2.4456   -1.2499   -0.7447 C   0  0  0  0  0  0  0  0  0  0  0  0
   -3.8360   -1.2128   -0.9061 C   0  0  0  0  0  0  0  0  0  0  0  0
   -4.6303   -0.4957   -0.0082 C   0  0  0  0  0  0  0  0  0  0  0  0
   -4.0389    0.1922    1.0531 C   0  0  0  0  0  0  0  0  0  0  0  0
   -2.6521    0.1610    1.2226 C   0  0  0  0  0  0  0  0  0  0  0  0
   -1.8425   -0.5694    0.3350 C   0  0  0  0  0  0  0  0  0  0  0  0
   -0.3447   -0.5618    0.5185 C   0  0  0  0  0  0  0  0  0  0  0  0
    0.2928    0.5678   -0.2960 C   0  0  0  0  0  0  0  0  0  0  0  0
    1.7869    0.5720   -0.1153 C   0  0  0  0  0  0  0  0  0  0  0  0
    2.6043   -0.2006   -0.9568 C   0  0  0  0  0  0  0  0  0  0  0  0
    3.9896   -0.2222   -0.7674 C   0  0  0  0  0  0  0  0  0  0  0  0
    4.5676    0.5188    0.2686 C   0  0  0  0  0  0  0  0  0  0  0  0
    6.3053    0.4888    0.5060 Cl  0  0  0  0  0  0  0  0  0  0  0  0
    3.7578    1.2792    1.1188 C   0  0  0  0  0  0  0  0  0  0  0  0
    2.3723    1.3027    0.9318 C   0  0  0  0  0  0  0  0  0  0  0  0
   -4.3019   -1.7373   -1.7310 H   0  0  0  0  0  0  0  0  0  0  0  0
   -5.7045   -0.4691   -0.1383 H   0  0  0  0  0  0  0  0  0  0  0  0
   -4.6553    0.7533    1.7436 H   0  0  0  0  0  0  0  0  0  0  0  0
   -2.2085    0.7079    2.0456 H   0  0  0  0  0  0  0  0  0  0  0  0
   -0.0971   -0.4288    1.5951 H   0  0  0  0  0  0  0  0  0  0  0  0
    0.0830   -1.5404    0.2089 H   0  0  0  0  0  0  0  0  0  0  0  0
   -0.1283    1.5457    0.0268 H   0  0  0  0  0  0  0  0  0  0  0  0
    0.0456    0.4416   -1.3732 H   0  0  0  0  0  0  0  0  0  0  0  0
    2.1686   -0.7864   -1.7568 H   0  0  0  0  0  0  0  0  0  0  0  0
    4.6116   -0.8175   -1.4237 H   0  0  0  0  0  0  0  0  0  0  0  0
    4.2000    1.8489    1.9261 H   0  0  0  0  0  0  0  0  0  0  0  0
    1.7559    1.8880    1.6030 H   0  0  0  0  0  0  0  0  0  0  0  0
  1  2  1  0
  2  3  2  0
  3  4  1  0
  4  5  2  0
  5  6  1  0
  6  7  2  0
  7  8  1  0
  8  9  1  0
  9 10  1  0
 10 11  1  0
 11 12  2  0
 12 13  1  0
 13 14  1  0
 13 15  2  0
 15 16  1  0
  7  2  1  0
 16 10  2  0
  3 17  1  0
  4 18  1  0
  5 19  1  0
  6 20  1  0
  8 21  1  0
  8 22  1  0
  9 23  1  0
  9 24  1  0
 11 25  1  0
 12 26  1  0
 15 27  1  0
 16 28  1  0
M  RAD  1   1   3
M  END
$$$$
