
     RDKit          3D

 28 29  0  0  0  0  0  0  0  0999 V2000
   -2.6577   -0.9002   -2.2728 N   0  0  0  0  0  1  0  0  0  0  0  0
   -2.4662   -0.1900   -1.0512 C   0  0  0  0  0  0  0  0  0  0  0  0
   -3.1866    0.9894   -0.8270 C   0  0  0  0  0  0  0  0  0  0  0  0
   -3.0083    1.7094    0.3567 C   0  0  0  0  0  0  0  0  0  0  0  0
   -2.1083    1.2550    1.3224 C   0  0  0  0  0  0  0  0  0  0  0  0
   -1.3864    0.0781    1.1086 C   0  0  0  0  0  0  0  0  0  0  0  0
   -1.5611   -0.6599   -0.0757 C   0  0  0  0  0  0  0  0  0  0  0  0
   -0.7337   -1.9036   -0.3074 C   0  0  0  0  0  0  0  0  0  0  0  0
    0.5009   -1.6165   -1.1738 C   0  0  0  0  0  0  0  0  0  0  0  0
    1.4537   -0.6673   -0.4926 C   0  0  0  0  0  0  0  0  0  0  0  0
    2.3369   -1.1379    0.4928 C   0  0  0  0  0  0  0  0  0  0  0  0
    3.1878   -0.2503    1.1584 C   0  0  0  0  0  0  0  0  0  0  0  0
    3.1582    1.1138    0.8507 C   0  0  0  0  0  0  0  0  0  0  0  0
    4.2223    2.2267    1.6908 Cl  0  0  0  0  0  0  0  0  0  0  0  0
    2.2752    1.5905   -0.1236 C   0  0  0  0  0  0  0  0  0  0  0  0
    1.4243    0.7052   -0.7919 C   0  0  0  0  0  0  0  0  0  0  0  0
   -3.8832    1.3513   -1.5729 H   0  0  0  0  0  0  0  0  0  0  0  0
   -3.5657    2.6220    0.5239 H   0  0  0  0  0  0  0  0  0  0  0  0
   -1.9665    1.8176    2.2361 H   0  0  0  0  0  0  0  0  0  0  0  0
   -0.6826   -0.2528    1.8625 H   0  0  0  0  0  0  0  0  0  0  0  0
   -1.3552   -2.6767   -0.8085 H   0  0  0  0  0  0  0  0  0  0  0  0
   -0.4133   -2.3430    0.6630 H   0  0  0  0  0  0  0  0  0  0  0  0
    0.1846   -1.2089   -2.1589 H   0  0  0  0  0  0  0  0  0  0  0  0
    1.0247   -2.5753   -1.3794 H   0  0  0  0  0  0  0  0  0  0  0  0
    2.3612   -2.1901    0.7484 H   0  0  0  0  0  0  0  0  0  0  0  0
    3.8656   -0.6230    1.9157 H   0  0  0  0  0  0  0  0  0  0  0  0
    2.2438    2.6464   -0.3604 H   0  0  0  0  0  0  0  0  0  0  0  0
    0.7357    1.0902   -1.5340 H   0  0  0  0  0  0  0  0  0  0  0  0
  1  2  1  0
  2  3  2  0
  3  4  1  0
  4  5  2  0
  5  6  1  0
  6  7  2  0
  7  8  1  0
  8  9  1  0
  9 10  1  0
 10 11  1  0
 11 12  2  0
 12 13  1  0
 13 14  1  0
 13 15  2  0
 15 16  1  0
  7  2  1  0
 16 10  2  0
  3 17  1  0
  4 18  1  0
  5 19  1  0
  6 20  1  0
  8 21  1  0
  8 22  1  0
  9 23  1  0
  9 24  1  0
 11 25  1  0
 12 26  1  0
 15 27  1  0
 16 28  1  0
M  RAD  1   1   3
M  END
$$$$
