
     RDKit          3D

 31 32  0  0  0  0  0  0  0  0999 V2000
   -3.8034   -0.6719    1.9506 C   0  0  0  0  0  0  0  0  0  0  0  0
   -2.8175   -0.5065    0.8324 C   0  0  0  0  0  0  0  0  0  0  0  0
   -1.7251   -1.3774    0.7202 C   0  0  0  0  0  0  0  0  0  0  0  0
   -0.7845   -1.2008   -0.2970 C   0  0  0  0  0  0  0  0  0  0  0  0
   -0.9146   -0.1442   -1.2140 C   0  0  0  0  0  0  0  0  0  0  0  0
    0.1445    0.0566   -2.2738 C   0  0  0  0  0  0  0  0  0  0  0  0
    1.1809    1.1094   -1.8551 C   0  0  0  0  0  0  0  0  0  0  0  0
    1.9591    0.6760   -0.6388 C   0  0  0  0  0  0  0  0  0  0  0  0
    3.0291   -0.2250   -0.7678 C   0  0  0  0  0  0  0  0  0  0  0  0
    3.7218   -0.6625    0.3655 C   0  0  0  0  0  0  0  0  0  0  0  0
    3.3470   -0.2102    1.6337 C   0  0  0  0  0  0  0  0  0  0  0  0
    2.2777    0.6792    1.7711 C   0  0  0  0  0  0  0  0  0  0  0  0
    1.5835    1.1204    0.6406 C   0  0  0  0  0  0  0  0  0  0  0  0
   -1.9995    0.7472   -1.0854 C   0  0  0  0  0  0  0  0  0  0  0  0
   -2.1505    1.8471   -1.9803 N   0  0  0  0  0  1  0  0  0  0  0  0
   -2.9403    0.5641   -0.0651 C   0  0  0  0  0  0  0  0  0  0  0  0
   -3.4599   -0.0938    2.8338 H   0  0  0  0  0  0  0  0  0  0  0  0
   -4.8069   -0.3058    1.6455 H   0  0  0  0  0  0  0  0  0  0  0  0
   -3.9001   -1.7419    2.2331 H   0  0  0  0  0  0  0  0  0  0  0  0
   -1.5989   -2.1918    1.4230 H   0  0  0  0  0  0  0  0  0  0  0  0
    0.0558   -1.8812   -0.3609 H   0  0  0  0  0  0  0  0  0  0  0  0
   -0.3347    0.3787   -3.2233 H   0  0  0  0  0  0  0  0  0  0  0  0
    0.6591   -0.9044   -2.4954 H   0  0  0  0  0  0  0  0  0  0  0  0
    1.8847    1.2744   -2.6997 H   0  0  0  0  0  0  0  0  0  0  0  0
    0.6763    2.0822   -1.6666 H   0  0  0  0  0  0  0  0  0  0  0  0
    3.3217   -0.5914   -1.7440 H   0  0  0  0  0  0  0  0  0  0  0  0
    4.5463   -1.3557    0.2609 H   0  0  0  0  0  0  0  0  0  0  0  0
    3.8824   -0.5519    2.5100 H   0  0  0  0  0  0  0  0  0  0  0  0
    1.9839    1.0233    2.7542 H   0  0  0  0  0  0  0  0  0  0  0  0
    0.7481    1.7987    0.7625 H   0  0  0  0  0  0  0  0  0  0  0  0
   -3.7660    1.2594    0.0300 H   0  0  0  0  0  0  0  0  0  0  0  0
  1  2  1  0
  2  3  1  0
  3  4  2  0
  4  5  1  0
  5  6  1  0
  6  7  1  0
  7  8  1  0
  8  9  2  0
  9 10  1  0
 10 11  2  0
 11 12  1  0
 12 13  2  0
  5 14  2  0
 14 15  1  0
 14 16  1  0
 16  2  2  0
 13  8  1  0
  1 17  1  0
  1 18  1  0
  1 19  1  0
  3 20  1  0
  4 21  1  0
  6 22  1  0
  6 23  1  0
  7 24  1  0
  7 25  1  0
  9 26  1  0
 10 27  1  0
 11 28  1  0
 12 29  1  0
 13 30  1  0
 16 31  1  0
M  RAD  1  15   3
M  END
$$$$
