
     RDKit          3D

 31 32  0  0  0  0  0  0  0  0999 V2000
    3.6269    2.3281   -0.4073 C   0  0  0  0  0  0  0  0  0  0  0  0
    2.7111    1.1438   -0.5011 C   0  0  0  0  0  0  0  0  0  0  0  0
    1.5383    1.2175   -1.2649 C   0  0  0  0  0  0  0  0  0  0  0  0
    0.6646    0.1293   -1.3214 C   0  0  0  0  0  0  0  0  0  0  0  0
    0.9437   -1.0481   -0.6073 C   0  0  0  0  0  0  0  0  0  0  0  0
   -0.0434   -2.1925   -0.6433 C   0  0  0  0  0  0  0  0  0  0  0  0
   -0.9790   -2.1799    0.5742 C   0  0  0  0  0  0  0  0  0  0  0  0
   -1.8484   -0.9485    0.5993 C   0  0  0  0  0  0  0  0  0  0  0  0
   -1.4812    0.1648    1.3745 C   0  0  0  0  0  0  0  0  0  0  0  0
   -2.2645    1.3228    1.3589 C   0  0  0  0  0  0  0  0  0  0  0  0
   -3.4152    1.3795    0.5679 C   0  0  0  0  0  0  0  0  0  0  0  0
   -3.7829    0.2792   -0.2115 C   0  0  0  0  0  0  0  0  0  0  0  0
   -3.0015   -0.8804   -0.2002 C   0  0  0  0  0  0  0  0  0  0  0  0
    2.1106   -1.1127    0.1816 C   0  0  0  0  0  0  0  0  0  0  0  0
    2.4141   -2.2804    0.9417 N   0  0  0  0  0  1  0  0  0  0  0  0
    2.9837   -0.0197    0.2329 C   0  0  0  0  0  0  0  0  0  0  0  0
    4.6752    2.0005   -0.2408 H   0  0  0  0  0  0  0  0  0  0  0  0
    3.3102    2.9732    0.4386 H   0  0  0  0  0  0  0  0  0  0  0  0
    3.5980    2.9213   -1.3461 H   0  0  0  0  0  0  0  0  0  0  0  0
    1.2977    2.1193   -1.8143 H   0  0  0  0  0  0  0  0  0  0  0  0
   -0.2396    0.2104   -1.9122 H   0  0  0  0  0  0  0  0  0  0  0  0
    0.5062   -3.1581   -0.6670 H   0  0  0  0  0  0  0  0  0  0  0  0
   -0.6472   -2.1552   -1.5768 H   0  0  0  0  0  0  0  0  0  0  0  0
   -0.3825   -2.2530    1.5098 H   0  0  0  0  0  0  0  0  0  0  0  0
   -1.6258   -3.0834    0.5378 H   0  0  0  0  0  0  0  0  0  0  0  0
   -0.5845    0.1393    1.9813 H   0  0  0  0  0  0  0  0  0  0  0  0
   -1.9768    2.1780    1.9567 H   0  0  0  0  0  0  0  0  0  0  0  0
   -4.0197    2.2772    0.5558 H   0  0  0  0  0  0  0  0  0  0  0  0
   -4.6711    0.3264   -0.8281 H   0  0  0  0  0  0  0  0  0  0  0  0
   -3.2905   -1.7223   -0.8170 H   0  0  0  0  0  0  0  0  0  0  0  0
    3.8736   -0.0765    0.8485 H   0  0  0  0  0  0  0  0  0  0  0  0
  1  2  1  0
  2  3  1  0
  3  4  2  0
  4  5  1  0
  5  6  1  0
  6  7  1  0
  7  8  1  0
  8  9  2  0
  9 10  1  0
 10 11  2  0
 11 12  1  0
 12 13  2  0
  5 14  2  0
 14 15  1  0
 14 16  1  0
 16  2  2  0
 13  8  1  0
  1 17  1  0
  1 18  1  0
  1 19  1  0
  3 20  1  0
  4 21  1  0
  6 22  1  0
  6 23  1  0
  7 24  1  0
  7 25  1  0
  9 26  1  0
 10 27  1  0
 11 28  1  0
 12 29  1  0
 13 30  1  0
 16 31  1  0
M  RAD  1  15   3
M  END
$$$$
