
     RDKit          3D

 31 32  0  0  0  0  0  0  0  0999 V2000
   -4.0324   -0.2831    1.6097 C   0  0  0  0  0  0  0  0  0  0  0  0
   -2.9283   -0.1599    0.6018 C   0  0  0  0  0  0  0  0  0  0  0  0
   -1.9621   -1.1685    0.4868 C   0  0  0  0  0  0  0  0  0  0  0  0
   -0.9111   -1.0371   -0.4236 C   0  0  0  0  0  0  0  0  0  0  0  0
   -0.8026    0.1098   -1.2280 C   0  0  0  0  0  0  0  0  0  0  0  0
    0.3728    0.2515   -2.1680 C   0  0  0  0  0  0  0  0  0  0  0  0
    1.4995    1.0939   -1.5528 C   0  0  0  0  0  0  0  0  0  0  0  0
    2.0871    0.4356   -0.3304 C   0  0  0  0  0  0  0  0  0  0  0  0
    1.6536    0.8065    0.9540 C   0  0  0  0  0  0  0  0  0  0  0  0
    2.1658    0.1611    2.0836 C   0  0  0  0  0  0  0  0  0  0  0  0
    3.1091   -0.8598    1.9396 C   0  0  0  0  0  0  0  0  0  0  0  0
    3.5397   -1.2394    0.6652 C   0  0  0  0  0  0  0  0  0  0  0  0
    3.0288   -0.5978   -0.4673 C   0  0  0  0  0  0  0  0  0  0  0  0
   -1.7603    1.1359   -1.0937 C   0  0  0  0  0  0  0  0  0  0  0  0
   -1.6685    2.3265   -1.8732 N   0  0  0  0  0  1  0  0  0  0  0  0
   -2.8126    0.9979   -0.1811 C   0  0  0  0  0  0  0  0  0  0  0  0
   -4.3041   -1.3490    1.7652 H   0  0  0  0  0  0  0  0  0  0  0  0
   -3.6999    0.1505    2.5759 H   0  0  0  0  0  0  0  0  0  0  0  0
   -4.9404    0.2553    1.2640 H   0  0  0  0  0  0  0  0  0  0  0  0
   -2.0198   -2.0560    1.1048 H   0  0  0  0  0  0  0  0  0  0  0  0
   -0.1714   -1.8255   -0.4911 H   0  0  0  0  0  0  0  0  0  0  0  0
    0.7679   -0.7496   -2.4493 H   0  0  0  0  0  0  0  0  0  0  0  0
    0.0382    0.7304   -3.1134 H   0  0  0  0  0  0  0  0  0  0  0  0
    1.1191    2.1083   -1.3023 H   0  0  0  0  0  0  0  0  0  0  0  0
    2.2987    1.2326   -2.3131 H   0  0  0  0  0  0  0  0  0  0  0  0
    0.9128    1.5866    1.0792 H   0  0  0  0  0  0  0  0  0  0  0  0
    1.8278    0.4496    3.0705 H   0  0  0  0  0  0  0  0  0  0  0  0
    3.5035   -1.3594    2.8149 H   0  0  0  0  0  0  0  0  0  0  0  0
    4.2660   -2.0341    0.5547 H   0  0  0  0  0  0  0  0  0  0  0  0
    3.3617   -0.9085   -1.4499 H   0  0  0  0  0  0  0  0  0  0  0  0
   -3.5388    1.7957   -0.0799 H   0  0  0  0  0  0  0  0  0  0  0  0
  1  2  1  0
  2  3  1  0
  3  4  2  0
  4  5  1  0
  5  6  1  0
  6  7  1  0
  7  8  1  0
  8  9  2  0
  9 10  1  0
 10 11  2  0
 11 12  1  0
 12 13  2  0
  5 14  2  0
 14 15  1  0
 14 16  1  0
 16  2  2  0
 13  8  1  0
  1 17  1  0
  1 18  1  0
  1 19  1  0
  3 20  1  0
  4 21  1  0
  6 22  1  0
  6 23  1  0
  7 24  1  0
  7 25  1  0
  9 26  1  0
 10 27  1  0
 11 28  1  0
 12 29  1  0
 13 30  1  0
 16 31  1  0
M  RAD  1  15   3
M  END
$$$$
