
     RDKit          3D

 31 32  0  0  0  0  0  0  0  0999 V2000
   -5.4265    0.1969    0.7278 C   0  0  0  0  0  0  0  0  0  0  0  0
   -3.9416    0.0005    0.6457 C   0  0  0  0  0  0  0  0  0  0  0  0
   -3.4090   -1.0454   -0.1206 C   0  0  0  0  0  0  0  0  0  0  0  0
   -2.0281   -1.2514   -0.1695 C   0  0  0  0  0  0  0  0  0  0  0  0
   -1.1579   -0.4297    0.5656 C   0  0  0  0  0  0  0  0  0  0  0  0
    0.3317   -0.6522    0.4701 C   0  0  0  0  0  0  0  0  0  0  0  0
    0.9361    0.2132   -0.6398 C   0  0  0  0  0  0  0  0  0  0  0  0
    2.4221   -0.0063   -0.7318 C   0  0  0  0  0  0  0  0  0  0  0  0
    2.9393   -1.0215   -1.5539 C   0  0  0  0  0  0  0  0  0  0  0  0
    4.3184   -1.2455   -1.6129 C   0  0  0  0  0  0  0  0  0  0  0  0
    5.1883   -0.4657   -0.8456 C   0  0  0  0  0  0  0  0  0  0  0  0
    4.6801    0.5368   -0.0148 C   0  0  0  0  0  0  0  0  0  0  0  0
    3.3017    0.7641    0.0472 C   0  0  0  0  0  0  0  0  0  0  0  0
   -1.6937    0.6209    1.3390 C   0  0  0  0  0  0  0  0  0  0  0  0
   -0.8408    1.4894    2.0820 N   0  0  0  0  0  1  0  0  0  0  0  0
   -3.0782    0.8225    1.3844 C   0  0  0  0  0  0  0  0  0  0  0  0
   -5.9178   -0.1262   -0.2147 H   0  0  0  0  0  0  0  0  0  0  0  0
   -5.8317   -0.4009    1.5707 H   0  0  0  0  0  0  0  0  0  0  0  0
   -5.6715    1.2679    0.8923 H   0  0  0  0  0  0  0  0  0  0  0  0
   -4.0626   -1.6998   -0.6843 H   0  0  0  0  0  0  0  0  0  0  0  0
   -1.6365   -2.0553   -0.7807 H   0  0  0  0  0  0  0  0  0  0  0  0
    0.5407   -1.7247    0.2598 H   0  0  0  0  0  0  0  0  0  0  0  0
    0.8167   -0.4151    1.4421 H   0  0  0  0  0  0  0  0  0  0  0  0
    0.4574   -0.0374   -1.6123 H   0  0  0  0  0  0  0  0  0  0  0  0
    0.7274    1.2867   -0.4363 H   0  0  0  0  0  0  0  0  0  0  0  0
    2.2752   -1.6389   -2.1463 H   0  0  0  0  0  0  0  0  0  0  0  0
    4.7125   -2.0260   -2.2508 H   0  0  0  0  0  0  0  0  0  0  0  0
    6.2553   -0.6412   -0.8914 H   0  0  0  0  0  0  0  0  0  0  0  0
    5.3542    1.1355    0.5841 H   0  0  0  0  0  0  0  0  0  0  0  0
    2.9198    1.5376    0.7021 H   0  0  0  0  0  0  0  0  0  0  0  0
   -3.4809    1.6239    1.9926 H   0  0  0  0  0  0  0  0  0  0  0  0
  1  2  1  0
  2  3  1  0
  3  4  2  0
  4  5  1  0
  5  6  1  0
  6  7  1  0
  7  8  1  0
  8  9  2  0
  9 10  1  0
 10 11  2  0
 11 12  1  0
 12 13  2  0
  5 14  2  0
 14 15  1  0
 14 16  1  0
 16  2  2  0
 13  8  1  0
  1 17  1  0
  1 18  1  0
  1 19  1  0
  3 20  1  0
  4 21  1  0
  6 22  1  0
  6 23  1  0
  7 24  1  0
  7 25  1  0
  9 26  1  0
 10 27  1  0
 11 28  1  0
 12 29  1  0
 13 30  1  0
 16 31  1  0
M  RAD  1  15   3
M  END
$$$$
