
     RDKit          3D

 31 32  0  0  0  0  0  0  0  0999 V2000
    3.9648    1.5043    0.8416 C   0  0  0  0  0  0  0  0  0  0  0  0
    2.9044    0.5897    0.3038 C   0  0  0  0  0  0  0  0  0  0  0  0
    1.9722    1.0623   -0.6300 C   0  0  0  0  0  0  0  0  0  0  0  0
    0.9602    0.2235   -1.1020 C   0  0  0  0  0  0  0  0  0  0  0  0
    0.8568   -1.0998   -0.6410 C   0  0  0  0  0  0  0  0  0  0  0  0
   -0.2783   -1.9713   -1.1279 C   0  0  0  0  0  0  0  0  0  0  0  0
   -1.4543   -1.9841   -0.1406 C   0  0  0  0  0  0  0  0  0  0  0  0
   -2.0782   -0.6194    0.0045 C   0  0  0  0  0  0  0  0  0  0  0  0
   -1.7134    0.2188    1.0720 C   0  0  0  0  0  0  0  0  0  0  0  0
   -2.2581    1.5020    1.1775 C   0  0  0  0  0  0  0  0  0  0  0  0
   -3.1658    1.9587    0.2181 C   0  0  0  0  0  0  0  0  0  0  0  0
   -3.5279    1.1339   -0.8505 C   0  0  0  0  0  0  0  0  0  0  0  0
   -2.9842   -0.1497   -0.9608 C   0  0  0  0  0  0  0  0  0  0  0  0
    1.7792   -1.5671    0.3176 C   0  0  0  0  0  0  0  0  0  0  0  0
    1.6902   -2.8952    0.8293 N   0  0  0  0  0  1  0  0  0  0  0  0
    2.7926   -0.7226    0.7856 C   0  0  0  0  0  0  0  0  0  0  0  0
    4.2583    2.2560    0.0781 H   0  0  0  0  0  0  0  0  0  0  0  0
    4.8725    0.9289    1.1229 H   0  0  0  0  0  0  0  0  0  0  0  0
    3.5774    2.0311    1.7384 H   0  0  0  0  0  0  0  0  0  0  0  0
    2.0262    2.0822   -0.9905 H   0  0  0  0  0  0  0  0  0  0  0  0
    0.2461    0.6115   -1.8180 H   0  0  0  0  0  0  0  0  0  0  0  0
   -0.6329   -1.6264   -2.1243 H   0  0  0  0  0  0  0  0  0  0  0  0
    0.0854   -3.0117   -1.2705 H   0  0  0  0  0  0  0  0  0  0  0  0
   -2.2218   -2.6999   -0.5075 H   0  0  0  0  0  0  0  0  0  0  0  0
   -1.1134   -2.3622    0.8480 H   0  0  0  0  0  0  0  0  0  0  0  0
   -1.0005   -0.1174    1.8149 H   0  0  0  0  0  0  0  0  0  0  0  0
   -1.9731    2.1442    2.0008 H   0  0  0  0  0  0  0  0  0  0  0  0
   -3.5855    2.9530    0.3004 H   0  0  0  0  0  0  0  0  0  0  0  0
   -4.2266    1.4908   -1.5961 H   0  0  0  0  0  0  0  0  0  0  0  0
   -3.2638   -0.7752   -1.7995 H   0  0  0  0  0  0  0  0  0  0  0  0
    3.4915   -1.0889    1.5283 H   0  0  0  0  0  0  0  0  0  0  0  0
  1  2  1  0
  2  3  1  0
  3  4  2  0
  4  5  1  0
  5  6  1  0
  6  7  1  0
  7  8  1  0
  8  9  2  0
  9 10  1  0
 10 11  2  0
 11 12  1  0
 12 13  2  0
  5 14  2  0
 14 15  1  0
 14 16  1  0
 16  2  2  0
 13  8  1  0
  1 17  1  0
  1 18  1  0
  1 19  1  0
  3 20  1  0
  4 21  1  0
  6 22  1  0
  6 23  1  0
  7 24  1  0
  7 25  1  0
  9 26  1  0
 10 27  1  0
 11 28  1  0
 12 29  1  0
 13 30  1  0
 16 31  1  0
M  RAD  1  15   3
M  END
$$$$
