
     RDKit          3D

 31 32  0  0  0  0  0  0  0  0999 V2000
    4.0170    1.5910   -0.1676 C   0  0  0  0  0  0  0  0  0  0  0  0
    2.9220    0.5911    0.0588 C   0  0  0  0  0  0  0  0  0  0  0  0
    1.9434    0.8250    1.0344 C   0  0  0  0  0  0  0  0  0  0  0  0
    0.9009   -0.0857    1.2195 C   0  0  0  0  0  0  0  0  0  0  0  0
    0.8133   -1.2416    0.4255 C   0  0  0  0  0  0  0  0  0  0  0  0
   -0.3532   -2.1852    0.6101 C   0  0  0  0  0  0  0  0  0  0  0  0
   -1.4732   -1.9164   -0.4052 C   0  0  0  0  0  0  0  0  0  0  0  0
   -2.0783   -0.5477   -0.2219 C   0  0  0  0  0  0  0  0  0  0  0  0
   -1.6493    0.5307   -1.0145 C   0  0  0  0  0  0  0  0  0  0  0  0
   -2.1781    1.8088   -0.8101 C   0  0  0  0  0  0  0  0  0  0  0  0
   -3.1337    2.0201    0.1875 C   0  0  0  0  0  0  0  0  0  0  0  0
   -3.5599    0.9542    0.9847 C   0  0  0  0  0  0  0  0  0  0  0  0
   -3.0325   -0.3253    0.7848 C   0  0  0  0  0  0  0  0  0  0  0  0
    1.7834   -1.4638   -0.5733 C   0  0  0  0  0  0  0  0  0  0  0  0
    1.7130   -2.6114   -1.4168 N   0  0  0  0  0  1  0  0  0  0  0  0
    2.8272   -0.5486   -0.7530 C   0  0  0  0  0  0  0  0  0  0  0  0
    4.9345    1.0891   -0.5421 H   0  0  0  0  0  0  0  0  0  0  0  0
    4.2736    2.1124    0.7792 H   0  0  0  0  0  0  0  0  0  0  0  0
    3.6832    2.3407   -0.9150 H   0  0  0  0  0  0  0  0  0  0  0  0
    1.9850    1.7151    1.6502 H   0  0  0  0  0  0  0  0  0  0  0  0
    0.1514    0.1183    1.9744 H   0  0  0  0  0  0  0  0  0  0  0  0
   -0.0055   -3.2345    0.4955 H   0  0  0  0  0  0  0  0  0  0  0  0
   -0.7594   -2.1031    1.6425 H   0  0  0  0  0  0  0  0  0  0  0  0
   -1.0814   -2.0321   -1.4394 H   0  0  0  0  0  0  0  0  0  0  0  0
   -2.2649   -2.6863   -0.2770 H   0  0  0  0  0  0  0  0  0  0  0  0
   -0.8992    0.3837   -1.7818 H   0  0  0  0  0  0  0  0  0  0  0  0
   -1.8436    2.6363   -1.4222 H   0  0  0  0  0  0  0  0  0  0  0  0
   -3.5410    3.0104    0.3454 H   0  0  0  0  0  0  0  0  0  0  0  0
   -4.2958    1.1203    1.7607 H   0  0  0  0  0  0  0  0  0  0  0  0
   -3.3622   -1.1409    1.4164 H   0  0  0  0  0  0  0  0  0  0  0  0
    3.5631   -0.7245   -1.5287 H   0  0  0  0  0  0  0  0  0  0  0  0
  1  2  1  0
  2  3  1  0
  3  4  2  0
  4  5  1  0
  5  6  1  0
  6  7  1  0
  7  8  1  0
  8  9  2  0
  9 10  1  0
 10 11  2  0
 11 12  1  0
 12 13  2  0
  5 14  2  0
 14 15  1  0
 14 16  1  0
 16  2  2  0
 13  8  1  0
  1 17  1  0
  1 18  1  0
  1 19  1  0
  3 20  1  0
  4 21  1  0
  6 22  1  0
  6 23  1  0
  7 24  1  0
  7 25  1  0
  9 26  1  0
 10 27  1  0
 11 28  1  0
 12 29  1  0
 13 30  1  0
 16 31  1  0
M  RAD  1  15   3
M  END
$$$$
