
     RDKit          3D

 31 32  0  0  0  0  0  0  0  0999 V2000
   -5.4842    0.1901    0.1245 C   0  0  0  0  0  0  0  0  0  0  0  0
   -3.9928    0.1653   -0.0356 C   0  0  0  0  0  0  0  0  0  0  0  0
   -3.3376   -1.0298   -0.3629 C   0  0  0  0  0  0  0  0  0  0  0  0
   -1.9529   -1.0470   -0.5474 C   0  0  0  0  0  0  0  0  0  0  0  0
   -1.2029    0.1349   -0.4308 C   0  0  0  0  0  0  0  0  0  0  0  0
    0.2955    0.0837   -0.6025 C   0  0  0  0  0  0  0  0  0  0  0  0
    0.9859   -0.1310    0.7477 C   0  0  0  0  0  0  0  0  0  0  0  0
    2.4803   -0.1780    0.5763 C   0  0  0  0  0  0  0  0  0  0  0  0
    3.2366    1.0051    0.6249 C   0  0  0  0  0  0  0  0  0  0  0  0
    4.6212    0.9639    0.4326 C   0  0  0  0  0  0  0  0  0  0  0  0
    5.2577   -0.2547    0.1812 C   0  0  0  0  0  0  0  0  0  0  0  0
    4.5101   -1.4339    0.1175 C   0  0  0  0  0  0  0  0  0  0  0  0
    3.1253   -1.3973    0.3091 C   0  0  0  0  0  0  0  0  0  0  0  0
   -1.8624    1.3381   -0.1045 C   0  0  0  0  0  0  0  0  0  0  0  0
   -1.1324    2.5543    0.0434 N   0  0  0  0  0  1  0  0  0  0  0  0
   -3.2502    1.3495    0.0790 C   0  0  0  0  0  0  0  0  0  0  0  0
   -5.8541   -0.7854    0.5062 H   0  0  0  0  0  0  0  0  0  0  0  0
   -5.9573    0.3975   -0.8579 H   0  0  0  0  0  0  0  0  0  0  0  0
   -5.7876    0.9779    0.8465 H   0  0  0  0  0  0  0  0  0  0  0  0
   -3.8981   -1.9502   -0.4713 H   0  0  0  0  0  0  0  0  0  0  0  0
   -1.4643   -1.9844   -0.7838 H   0  0  0  0  0  0  0  0  0  0  0  0
    0.6592    1.0254   -1.0687 H   0  0  0  0  0  0  0  0  0  0  0  0
    0.5684   -0.7437   -1.2946 H   0  0  0  0  0  0  0  0  0  0  0  0
    0.7140    0.6920    1.4450 H   0  0  0  0  0  0  0  0  0  0  0  0
    0.6291   -1.0811    1.2036 H   0  0  0  0  0  0  0  0  0  0  0  0
    2.7540    1.9569    0.8096 H   0  0  0  0  0  0  0  0  0  0  0  0
    5.2002    1.8774    0.4751 H   0  0  0  0  0  0  0  0  0  0  0  0
    6.3292   -0.2846    0.0313 H   0  0  0  0  0  0  0  0  0  0  0  0
    5.0032   -2.3761   -0.0840 H   0  0  0  0  0  0  0  0  0  0  0  0
    2.5562   -2.3167    0.2479 H   0  0  0  0  0  0  0  0  0  0  0  0
   -3.7492    2.2817    0.3160 H   0  0  0  0  0  0  0  0  0  0  0  0
  1  2  1  0
  2  3  1  0
  3  4  2  0
  4  5  1  0
  5  6  1  0
  6  7  1  0
  7  8  1  0
  8  9  2  0
  9 10  1  0
 10 11  2  0
 11 12  1  0
 12 13  2  0
  5 14  2  0
 14 15  1  0
 14 16  1  0
 16  2  2  0
 13  8  1  0
  1 17  1  0
  1 18  1  0
  1 19  1  0
  3 20  1  0
  4 21  1  0
  6 22  1  0
  6 23  1  0
  7 24  1  0
  7 25  1  0
  9 26  1  0
 10 27  1  0
 11 28  1  0
 12 29  1  0
 13 30  1  0
 16 31  1  0
M  RAD  1  15   3
M  END
$$$$
