
     RDKit          3D

 31 32  0  0  0  0  0  0  0  0999 V2000
    3.8392    1.8260    0.7120 C   0  0  0  0  0  0  0  0  0  0  0  0
    2.8470    0.7555    0.3662 C   0  0  0  0  0  0  0  0  0  0  0  0
    1.8324    0.4149    1.2711 C   0  0  0  0  0  0  0  0  0  0  0  0
    0.8841   -0.5537    0.9347 C   0  0  0  0  0  0  0  0  0  0  0  0
    0.9281   -1.1917   -0.3164 C   0  0  0  0  0  0  0  0  0  0  0  0
   -0.1402   -2.1987   -0.6767 C   0  0  0  0  0  0  0  0  0  0  0  0
   -1.2632   -1.5677   -1.5123 C   0  0  0  0  0  0  0  0  0  0  0  0
   -2.0067   -0.5071   -0.7408 C   0  0  0  0  0  0  0  0  0  0  0  0
   -2.9964   -0.8707    0.1874 C   0  0  0  0  0  0  0  0  0  0  0  0
   -3.6540    0.1103    0.9361 C   0  0  0  0  0  0  0  0  0  0  0  0
   -3.3235    1.4580    0.7692 C   0  0  0  0  0  0  0  0  0  0  0  0
   -2.3336    1.8270   -0.1457 C   0  0  0  0  0  0  0  0  0  0  0  0
   -1.6748    0.8496   -0.8976 C   0  0  0  0  0  0  0  0  0  0  0  0
    1.9335   -0.8303   -1.2366 C   0  0  0  0  0  0  0  0  0  0  0  0
    1.9946   -1.4361   -2.5261 N   0  0  0  0  0  1  0  0  0  0  0  0
    2.8825    0.1397   -0.8932 C   0  0  0  0  0  0  0  0  0  0  0  0
    3.4448    2.8124    0.3900 H   0  0  0  0  0  0  0  0  0  0  0  0
    4.8093    1.6399    0.2039 H   0  0  0  0  0  0  0  0  0  0  0  0
    4.0247    1.8498    1.8071 H   0  0  0  0  0  0  0  0  0  0  0  0
    1.7727    0.9020    2.2366 H   0  0  0  0  0  0  0  0  0  0  0  0
    0.1044   -0.7965    1.6463 H   0  0  0  0  0  0  0  0  0  0  0  0
    0.3138   -3.0336   -1.2528 H   0  0  0  0  0  0  0  0  0  0  0  0
   -0.5711   -2.6534    0.2426 H   0  0  0  0  0  0  0  0  0  0  0  0
   -0.8432   -1.1428   -2.4501 H   0  0  0  0  0  0  0  0  0  0  0  0
   -1.9753   -2.3658   -1.8157 H   0  0  0  0  0  0  0  0  0  0  0  0
   -3.2534   -1.9125    0.3339 H   0  0  0  0  0  0  0  0  0  0  0  0
   -4.4168   -0.1747    1.6491 H   0  0  0  0  0  0  0  0  0  0  0  0
   -3.8315    2.2157    1.3515 H   0  0  0  0  0  0  0  0  0  0  0  0
   -2.0735    2.8703   -0.2691 H   0  0  0  0  0  0  0  0  0  0  0  0
   -0.9000    1.1482   -1.5929 H   0  0  0  0  0  0  0  0  0  0  0  0
    3.6462    0.4159   -1.6106 H   0  0  0  0  0  0  0  0  0  0  0  0
  1  2  1  0
  2  3  1  0
  3  4  2  0
  4  5  1  0
  5  6  1  0
  6  7  1  0
  7  8  1  0
  8  9  2  0
  9 10  1  0
 10 11  2  0
 11 12  1  0
 12 13  2  0
  5 14  2  0
 14 15  1  0
 14 16  1  0
 16  2  2  0
 13  8  1  0
  1 17  1  0
  1 18  1  0
  1 19  1  0
  3 20  1  0
  4 21  1  0
  6 22  1  0
  6 23  1  0
  7 24  1  0
  7 25  1  0
  9 26  1  0
 10 27  1  0
 11 28  1  0
 12 29  1  0
 13 30  1  0
 16 31  1  0
M  RAD  1  15   3
M  END
$$$$
