
     RDKit          3D

 31 32  0  0  0  0  0  0  0  0999 V2000
    5.4619    0.0832    0.3832 C   0  0  0  0  0  0  0  0  0  0  0  0
    3.9893   -0.0286    0.1202 C   0  0  0  0  0  0  0  0  0  0  0  0
    3.3566    0.8722   -0.7476 C   0  0  0  0  0  0  0  0  0  0  0  0
    1.9923    0.7475   -1.0213 C   0  0  0  0  0  0  0  0  0  0  0  0
    1.2425   -0.2940   -0.4503 C   0  0  0  0  0  0  0  0  0  0  0  0
   -0.2364   -0.3874   -0.7358 C   0  0  0  0  0  0  0  0  0  0  0  0
   -1.0395    0.3688    0.3267 C   0  0  0  0  0  0  0  0  0  0  0  0
   -2.5144    0.2719    0.0435 C   0  0  0  0  0  0  0  0  0  0  0  0
   -3.1421    1.2212   -0.7805 C   0  0  0  0  0  0  0  0  0  0  0  0
   -4.5059    1.1107   -1.0691 C   0  0  0  0  0  0  0  0  0  0  0  0
   -5.2490    0.0486   -0.5463 C   0  0  0  0  0  0  0  0  0  0  0  0
   -4.6285   -0.9073    0.2627 C   0  0  0  0  0  0  0  0  0  0  0  0
   -3.2648   -0.8007    0.5539 C   0  0  0  0  0  0  0  0  0  0  0  0
    1.8795   -1.2022    0.4205 C   0  0  0  0  0  0  0  0  0  0  0  0
    1.1471   -2.2598    1.0361 N   0  0  0  0  0  1  0  0  0  0  0  0
    3.2469   -1.0726    0.6910 C   0  0  0  0  0  0  0  0  0  0  0  0
    6.0175   -0.5141   -0.3696 H   0  0  0  0  0  0  0  0  0  0  0  0
    5.7083   -0.2938    1.3987 H   0  0  0  0  0  0  0  0  0  0  0  0
    5.7923    1.1420    0.3212 H   0  0  0  0  0  0  0  0  0  0  0  0
    3.9186    1.6745   -1.2098 H   0  0  0  0  0  0  0  0  0  0  0  0
    1.5198    1.4640   -1.6820 H   0  0  0  0  0  0  0  0  0  0  0  0
   -0.4550    0.0395   -1.7399 H   0  0  0  0  0  0  0  0  0  0  0  0
   -0.5537   -1.4527   -0.7639 H   0  0  0  0  0  0  0  0  0  0  0  0
   -0.8224   -0.0519    1.3333 H   0  0  0  0  0  0  0  0  0  0  0  0
   -0.7282    1.4369    0.3413 H   0  0  0  0  0  0  0  0  0  0  0  0
   -2.5754    2.0436   -1.1994 H   0  0  0  0  0  0  0  0  0  0  0  0
   -4.9861    1.8467   -1.7010 H   0  0  0  0  0  0  0  0  0  0  0  0
   -6.3042   -0.0361   -0.7718 H   0  0  0  0  0  0  0  0  0  0  0  0
   -5.2034   -1.7331    0.6615 H   0  0  0  0  0  0  0  0  0  0  0  0
   -2.7937   -1.5531    1.1743 H   0  0  0  0  0  0  0  0  0  0  0  0
    3.7299   -1.7838    1.3506 H   0  0  0  0  0  0  0  0  0  0  0  0
  1  2  1  0
  2  3  1  0
  3  4  2  0
  4  5  1  0
  5  6  1  0
  6  7  1  0
  7  8  1  0
  8  9  2  0
  9 10  1  0
 10 11  2  0
 11 12  1  0
 12 13  2  0
  5 14  2  0
 14 15  1  0
 14 16  1  0
 16  2  2  0
 13  8  1  0
  1 17  1  0
  1 18  1  0
  1 19  1  0
  3 20  1  0
  4 21  1  0
  6 22  1  0
  6 23  1  0
  7 24  1  0
  7 25  1  0
  9 26  1  0
 10 27  1  0
 11 28  1  0
 12 29  1  0
 13 30  1  0
 16 31  1  0
M  RAD  1  15   3
M  END
$$$$
