
     RDKit          3D

 31 32  0  0  0  0  0  0  0  0999 V2000
    3.8019    2.0590    0.1691 C   0  0  0  0  0  0  0  0  0  0  0  0
    2.8026    0.9989   -0.1880 C   0  0  0  0  0  0  0  0  0  0  0  0
    1.6616    1.3270   -0.9328 C   0  0  0  0  0  0  0  0  0  0  0  0
    0.7103    0.3493   -1.2324 C   0  0  0  0  0  0  0  0  0  0  0  0
    0.8787   -0.9717   -0.7841 C   0  0  0  0  0  0  0  0  0  0  0  0
   -0.1905   -1.9994   -1.0771 C   0  0  0  0  0  0  0  0  0  0  0  0
   -1.1578   -2.1715    0.1028 C   0  0  0  0  0  0  0  0  0  0  0  0
   -1.9322   -0.9082    0.3807 C   0  0  0  0  0  0  0  0  0  0  0  0
   -3.0529   -0.5794   -0.3999 C   0  0  0  0  0  0  0  0  0  0  0  0
   -3.7439    0.6147   -0.1720 C   0  0  0  0  0  0  0  0  0  0  0  0
   -3.3172    1.4908    0.8299 C   0  0  0  0  0  0  0  0  0  0  0  0
   -2.1978    1.1752    1.6046 C   0  0  0  0  0  0  0  0  0  0  0  0
   -1.5049   -0.0185    1.3813 C   0  0  0  0  0  0  0  0  0  0  0  0
    2.0137   -1.2958   -0.0129 C   0  0  0  0  0  0  0  0  0  0  0  0
    2.2058   -2.6190    0.4828 N   0  0  0  0  0  1  0  0  0  0  0  0
    2.9649   -0.3122    0.2826 C   0  0  0  0  0  0  0  0  0  0  0  0
    3.8455    2.8388   -0.6209 H   0  0  0  0  0  0  0  0  0  0  0  0
    3.5101    2.5325    1.1297 H   0  0  0  0  0  0  0  0  0  0  0  0
    4.8172    1.6206    0.2746 H   0  0  0  0  0  0  0  0  0  0  0  0
    1.5059    2.3414   -1.2790 H   0  0  0  0  0  0  0  0  0  0  0  0
   -0.1675    0.6263   -1.8034 H   0  0  0  0  0  0  0  0  0  0  0  0
   -0.7621   -1.7161   -1.9884 H   0  0  0  0  0  0  0  0  0  0  0  0
    0.2852   -2.9786   -1.3005 H   0  0  0  0  0  0  0  0  0  0  0  0
   -1.8695   -2.9919   -0.1346 H   0  0  0  0  0  0  0  0  0  0  0  0
   -0.5962   -2.4897    1.0084 H   0  0  0  0  0  0  0  0  0  0  0  0
   -3.3864   -1.2448   -1.1866 H   0  0  0  0  0  0  0  0  0  0  0  0
   -4.6075    0.8629   -0.7751 H   0  0  0  0  0  0  0  0  0  0  0  0
   -3.8516    2.4159    1.0031 H   0  0  0  0  0  0  0  0  0  0  0  0
   -1.8640    1.8576    2.3755 H   0  0  0  0  0  0  0  0  0  0  0  0
   -0.6308   -0.2442    1.9796 H   0  0  0  0  0  0  0  0  0  0  0  0
    3.8295   -0.5697    0.8828 H   0  0  0  0  0  0  0  0  0  0  0  0
  1  2  1  0
  2  3  1  0
  3  4  2  0
  4  5  1  0
  5  6  1  0
  6  7  1  0
  7  8  1  0
  8  9  2  0
  9 10  1  0
 10 11  2  0
 11 12  1  0
 12 13  2  0
  5 14  2  0
 14 15  1  0
 14 16  1  0
 16  2  2  0
 13  8  1  0
  1 17  1  0
  1 18  1  0
  1 19  1  0
  3 20  1  0
  4 21  1  0
  6 22  1  0
  6 23  1  0
  7 24  1  0
  7 25  1  0
  9 26  1  0
 10 27  1  0
 11 28  1  0
 12 29  1  0
 13 30  1  0
 16 31  1  0
M  RAD  1  15   3
M  END
$$$$
