 xtb: 6.7.1 (edcfbbe)
          07312615173D

239260  0     0  0            999 V2000
    0.0725   -1.6230   -0.8527 N   0  0  0  0  0  0  0  0  0  0  0  0
   -0.2042   -0.9593    1.9066 N   0  0  0  0  0  0  0  0  0  0  0  0
   -0.5118   -0.8577   -3.1420 C   0  0  0  0  0  0  0  0  0  0  0  0
   -0.0617   -1.8127   -2.2026 C   0  0  0  0  0  0  0  0  0  0  0  0
    0.3854   -3.1476   -2.5547 C   0  0  0  0  0  0  0  0  0  0  0  0
    0.3747   -3.5584   -3.5653 H   0  0  0  0  0  0  0  0  0  0  0  0
    0.8166   -3.7359   -1.3995 C   0  0  0  0  0  0  0  0  0  0  0  0
    1.2332   -4.7346   -1.2625 H   0  0  0  0  0  0  0  0  0  0  0  0
    0.5868   -2.7835   -0.3300 C   0  0  0  0  0  0  0  0  0  0  0  0
    0.7687   -3.0739    1.0373 C   0  0  0  0  0  0  0  0  0  0  0  0
    0.3293   -2.2153    2.0636 C   0  0  0  0  0  0  0  0  0  0  0  0
    0.2560   -2.5998    3.4606 C   0  0  0  0  0  0  0  0  0  0  0  0
    0.6121   -3.5512    3.8588 H   0  0  0  0  0  0  0  0  0  0  0  0
   -0.3697   -1.5821    4.1228 C   0  0  0  0  0  0  0  0  0  0  0  0
   -0.6266   -1.5121    5.1806 H   0  0  0  0  0  0  0  0  0  0  0  0
   -0.6414   -0.5497    3.1406 C   0  0  0  0  0  0  0  0  0  0  0  0
    1.3454   -4.4105    1.4231 C   0  0  0  0  0  0  0  0  0  0  0  0
    2.6871   -4.5251    1.8582 C   0  0  0  0  0  0  0  0  0  0  0  0
    3.2340   -5.7684    2.2248 C   0  0  0  0  0  0  0  0  0  0  0  0
    2.4357   -6.9134    2.1481 C   0  0  0  0  0  0  0  0  0  0  0  0
    2.8618   -7.8874    2.4227 H   0  0  0  0  0  0  0  0  0  0  0  0
    1.1062   -6.8403    1.7245 C   0  0  0  0  0  0  0  0  0  0  0  0
    0.5630   -5.5896    1.3742 C   0  0  0  0  0  0  0  0  0  0  0  0
   -1.0150    1.6981    1.1797 N   0  0  0  0  0  0  0  0  0  0  0  0
   -0.6948    1.0521   -1.5599 N   0  0  0  0  0  0  0  0  0  0  0  0
   -1.2371    0.6929    3.4443 C   0  0  0  0  0  0  0  0  0  0  0  0
   -1.3468    1.7474    2.5120 C   0  0  0  0  0  0  0  0  0  0  0  0
   -1.7612    3.0916    2.8618 C   0  0  0  0  0  0  0  0  0  0  0  0
   -2.0940    3.3970    3.8548 H   0  0  0  0  0  0  0  0  0  0  0  0
   -1.6309    3.8532    1.7336 C   0  0  0  0  0  0  0  0  0  0  0  0
   -1.8431    4.9152    1.6052 H   0  0  0  0  0  0  0  0  0  0  0  0
   -1.2015    2.9650    0.6733 C   0  0  0  0  0  0  0  0  0  0  0  0
   -1.0830    3.3406   -0.6775 C   0  0  0  0  0  0  0  0  0  0  0  0
   -0.9258    2.3956   -1.7106 C   0  0  0  0  0  0  0  0  0  0  0  0
   -1.1283    2.7013   -3.1129 C   0  0  0  0  0  0  0  0  0  0  0  0
   -1.3295    3.6983   -3.5062 H   0  0  0  0  0  0  0  0  0  0  0  0
   -1.0695    1.5166   -3.7900 C   0  0  0  0  0  0  0  0  0  0  0  0
   -1.2082    1.3342   -4.8565 H   0  0  0  0  0  0  0  0  0  0  0  0
   -0.7644    0.4898   -2.8117 C   0  0  0  0  0  0  0  0  0  0  0  0
   -1.1955    4.7910   -1.0613 C   0  0  0  0  0  0  0  0  0  0  0  0
   -0.0276    5.5168   -1.4025 C   0  0  0  0  0  0  0  0  0  0  0  0
   -0.0995    6.8587   -1.8188 C   0  0  0  0  0  0  0  0  0  0  0  0
   -1.3456    7.4911   -1.8668 C   0  0  0  0  0  0  0  0  0  0  0  0
   -1.4057    8.5410   -2.1824 H   0  0  0  0  0  0  0  0  0  0  0  0
   -2.5172    6.8097   -1.5237 C   0  0  0  0  0  0  0  0  0  0  0  0
   -2.4406    5.4581   -1.1381 C   0  0  0  0  0  0  0  0  0  0  0  0
   -0.3677    0.0779    0.1731 Fe  0  0  0  0  0  0  0  0  0  0  0  0
   -2.5732   -0.6160    0.1292 Cl  0  0  0  0  0  0  0  0  0  0  0  0
   -1.8365    0.8840    4.8160 C   0  0  0  0  0  0  0  0  0  0  0  0
   -1.0931    1.4431    5.8896 C   0  0  0  0  0  0  0  0  0  0  0  0
   -3.1864    0.4894    5.0325 C   0  0  0  0  0  0  0  0  0  0  0  0
   -1.6863    1.6102    7.1570 C   0  0  0  0  0  0  0  0  0  0  0  0
    0.2469    1.8323    5.6317 N   0  0  0  0  0  0  0  0  0  0  0  0
   -3.7764    0.6814    6.3003 C   0  0  0  0  0  0  0  0  0  0  0  0
   -3.8887   -0.1163    3.9636 N   0  0  0  0  0  0  0  0  0  0  0  0
   -1.0921    2.0288    7.9738 H   0  0  0  0  0  0  0  0  0  0  0  0
   -3.0202    1.2327    7.3381 C   0  0  0  0  0  0  0  0  0  0  0  0
    1.2049    2.2677    6.5198 C   0  0  0  0  0  0  0  0  0  0  0  0
    0.5286    1.7426    4.6538 H   0  0  0  0  0  0  0  0  0  0  0  0
   -4.8209    0.3934    6.4435 H   0  0  0  0  0  0  0  0  0  0  0  0
   -5.2074   -0.5258    3.9324 C   0  0  0  0  0  0  0  0  0  0  0  0
   -3.3480   -0.2736    3.1078 H   0  0  0  0  0  0  0  0  0  0  0  0
   -3.4850    1.3711    8.3229 H   0  0  0  0  0  0  0  0  0  0  0  0
    1.0477    2.3681    7.7316 O   0  0  0  0  0  0  0  0  0  0  0  0
    2.5263    2.6290    5.8750 C   0  0  0  0  0  0  0  0  0  0  0  0
   -6.0194   -0.3158    4.8283 O   0  0  0  0  0  0  0  0  0  0  0  0
   -5.5900   -1.2852    2.6847 C   0  0  0  0  0  0  0  0  0  0  0  0
    3.7888    2.2758    6.6195 C   0  0  0  0  0  0  0  0  0  0  0  0
    2.5879    2.6362    4.7821 H   0  0  0  0  0  0  0  0  0  0  0  0
    3.3311    3.7142    6.5998 C   0  0  0  0  0  0  0  0  0  0  0  0
   -6.9464   -1.0209    2.0799 C   0  0  0  0  0  0  0  0  0  0  0  0
   -4.7937   -1.5742    1.9891 H   0  0  0  0  0  0  0  0  0  0  0  0
   -6.7381   -2.2848    2.8799 C   0  0  0  0  0  0  0  0  0  0  0  0
    3.6770    1.7473    7.5693 H   0  0  0  0  0  0  0  0  0  0  0  0
    4.6637    2.0217    6.0175 H   0  0  0  0  0  0  0  0  0  0  0  0
    2.8794    4.0997    7.5169 H   0  0  0  0  0  0  0  0  0  0  0  0
    4.0889    4.7035    5.7722 C   0  0  0  0  0  0  0  0  0  0  0  0
   -7.5614   -0.2535    2.5584 H   0  0  0  0  0  0  0  0  0  0  0  0
   -7.0226   -1.1080    0.9925 H   0  0  0  0  0  0  0  0  0  0  0  0
   -7.1654   -2.3042    3.8873 H   0  0  0  0  0  0  0  0  0  0  0  0
   -6.6756   -3.6017    2.1818 C   0  0  0  0  0  0  0  0  0  0  0  0
    4.1468    5.8991    6.3831 O   0  0  0  0  0  0  0  0  0  0  0  0
    4.6045    4.4571    4.6994 O   0  0  0  0  0  0  0  0  0  0  0  0
   -7.2663   -4.5651    2.9229 O   0  0  0  0  0  0  0  0  0  0  0  0
   -6.1770   -3.8010    1.0923 O   0  0  0  0  0  0  0  0  0  0  0  0
    4.8648    6.9870    5.7280 C   0  0  0  0  0  0  0  0  0  0  0  0
   -7.3153   -5.9147    2.3807 C   0  0  0  0  0  0  0  0  0  0  0  0
    3.8665    7.8405    4.9342 C   0  0  0  0  0  0  0  0  0  0  0  0
    5.5953    7.7599    6.8252 C   0  0  0  0  0  0  0  0  0  0  0  0
    5.5833    6.5210    5.0306 H   0  0  0  0  0  0  0  0  0  0  0  0
   -7.2942   -6.8685    3.5762 C   0  0  0  0  0  0  0  0  0  0  0  0
   -8.5601   -6.0612    1.4983 C   0  0  0  0  0  0  0  0  0  0  0  0
   -6.4088   -6.0478    1.7600 H   0  0  0  0  0  0  0  0  0  0  0  0
    3.3786    7.2341    4.1539 H   0  0  0  0  0  0  0  0  0  0  0  0
    3.0974    8.2512    5.6018 H   0  0  0  0  0  0  0  0  0  0  0  0
    4.3908    8.6764    4.4507 H   0  0  0  0  0  0  0  0  0  0  0  0
    6.2844    7.1037    7.3722 H   0  0  0  0  0  0  0  0  0  0  0  0
    6.1802    8.5823    6.3918 H   0  0  0  0  0  0  0  0  0  0  0  0
    4.8855    8.1844    7.5466 H   0  0  0  0  0  0  0  0  0  0  0  0
   -6.3891   -6.7113    4.1771 H   0  0  0  0  0  0  0  0  0  0  0  0
   -8.1738   -6.7096    4.2181 H   0  0  0  0  0  0  0  0  0  0  0  0
   -7.3113   -7.9118    3.2324 H   0  0  0  0  0  0  0  0  0  0  0  0
   -8.5175   -5.3536    0.6591 H   0  0  0  0  0  0  0  0  0  0  0  0
   -8.6228   -7.0804    1.0924 H   0  0  0  0  0  0  0  0  0  0  0  0
   -9.4745   -5.8712    2.0809 H   0  0  0  0  0  0  0  0  0  0  0  0
   -0.7242   -1.3270   -4.5597 C   0  0  0  0  0  0  0  0  0  0  0  0
    0.2399   -1.0884   -5.5763 C   0  0  0  0  0  0  0  0  0  0  0  0
   -1.9046   -2.0538   -4.8772 C   0  0  0  0  0  0  0  0  0  0  0  0
    0.0604   -1.6231   -6.8676 C   0  0  0  0  0  0  0  0  0  0  0  0
    1.3578   -0.2825   -5.2421 N   0  0  0  0  0  0  0  0  0  0  0  0
   -2.0723   -2.5923   -6.1707 C   0  0  0  0  0  0  0  0  0  0  0  0
   -2.8978   -2.1679   -3.8768 N   0  0  0  0  0  0  0  0  0  0  0  0
    0.8186   -1.4331   -7.6327 H   0  0  0  0  0  0  0  0  0  0  0  0
   -1.0869   -2.3764   -7.1387 C   0  0  0  0  0  0  0  0  0  0  0  0
    2.2941    0.2881   -6.0770 C   0  0  0  0  0  0  0  0  0  0  0  0
    1.3564    0.0437   -4.2741 H   0  0  0  0  0  0  0  0  0  0  0  0
   -2.9748   -3.1697   -6.3884 H   0  0  0  0  0  0  0  0  0  0  0  0
   -4.1091   -2.8275   -3.9373 C   0  0  0  0  0  0  0  0  0  0  0  0
   -2.7072   -1.6536   -3.0126 H   0  0  0  0  0  0  0  0  0  0  0  0
   -1.2224   -2.7995   -8.1425 H   0  0  0  0  0  0  0  0  0  0  0  0
    2.4196    0.0384   -7.2700 O   0  0  0  0  0  0  0  0  0  0  0  0
    3.1603    1.3241   -5.3929 C   0  0  0  0  0  0  0  0  0  0  0  0
   -4.4593   -3.5527   -4.8630 O   0  0  0  0  0  0  0  0  0  0  0  0
   -5.0060   -2.5642   -2.7522 C   0  0  0  0  0  0  0  0  0  0  0  0
    3.4500    2.5844   -6.1707 C   0  0  0  0  0  0  0  0  0  0  0  0
    3.0848    1.4275   -4.3049 H   0  0  0  0  0  0  0  0  0  0  0  0
    4.5493    1.5654   -5.9838 C   0  0  0  0  0  0  0  0  0  0  0  0
   -5.8819   -3.6839   -2.2518 C   0  0  0  0  0  0  0  0  0  0  0  0
   -4.6733   -1.8357   -2.0035 H   0  0  0  0  0  0  0  0  0  0  0  0
   -6.5091   -2.5815   -3.0703 C   0  0  0  0  0  0  0  0  0  0  0  0
    3.0224    2.6551   -7.1744 H   0  0  0  0  0  0  0  0  0  0  0  0
    3.5270    3.5155   -5.6043 H   0  0  0  0  0  0  0  0  0  0  0  0
    4.8182    0.9550   -6.8499 H   0  0  0  0  0  0  0  0  0  0  0  0
    5.6560    1.9003   -5.0332 C   0  0  0  0  0  0  0  0  0  0  0  0
   -5.7849   -4.6485   -2.7569 H   0  0  0  0  0  0  0  0  0  0  0  0
   -6.0742   -3.7042   -1.1758 H   0  0  0  0  0  0  0  0  0  0  0  0
   -6.7598   -2.8193   -4.1086 H   0  0  0  0  0  0  0  0  0  0  0  0
   -7.3868   -1.5685   -2.4132 C   0  0  0  0  0  0  0  0  0  0  0  0
    6.8411    1.4756   -5.5028 O   0  0  0  0  0  0  0  0  0  0  0  0
    5.5067    2.4960   -3.9829 O   0  0  0  0  0  0  0  0  0  0  0  0
   -8.3850   -1.1886   -3.2396 O   0  0  0  0  0  0  0  0  0  0  0  0
   -7.2460   -1.1393   -1.2856 O   0  0  0  0  0  0  0  0  0  0  0  0
    8.0394    1.7416   -4.7152 C   0  0  0  0  0  0  0  0  0  0  0  0
   -9.3419   -0.2060   -2.7514 C   0  0  0  0  0  0  0  0  0  0  0  0
    8.9831    0.5582   -4.9365 C   0  0  0  0  0  0  0  0  0  0  0  0
    8.6276    3.0897   -5.1412 C   0  0  0  0  0  0  0  0  0  0  0  0
    7.7226    1.7958   -3.6561 H   0  0  0  0  0  0  0  0  0  0  0  0
   -8.8100    1.2067   -3.0249 C   0  0  0  0  0  0  0  0  0  0  0  0
  -10.6706   -0.5074   -3.4437 C   0  0  0  0  0  0  0  0  0  0  0  0
   -9.4270   -0.3550   -1.6596 H   0  0  0  0  0  0  0  0  0  0  0  0
    8.4981   -0.3788   -4.6329 H   0  0  0  0  0  0  0  0  0  0  0  0
    9.2686    0.4801   -5.9966 H   0  0  0  0  0  0  0  0  0  0  0  0
    9.9014    0.6905   -4.3484 H   0  0  0  0  0  0  0  0  0  0  0  0
    7.9072    3.8975   -4.9597 H   0  0  0  0  0  0  0  0  0  0  0  0
    9.5402    3.3069   -4.5694 H   0  0  0  0  0  0  0  0  0  0  0  0
    8.8916    3.0788   -6.2100 H   0  0  0  0  0  0  0  0  0  0  0  0
   -7.8569    1.3661   -2.4950 H   0  0  0  0  0  0  0  0  0  0  0  0
   -8.6503    1.3564   -4.1016 H   0  0  0  0  0  0  0  0  0  0  0  0
   -9.5327    1.9569   -2.6751 H   0  0  0  0  0  0  0  0  0  0  0  0
  -10.9985   -1.5340   -3.2277 H   0  0  0  0  0  0  0  0  0  0  0  0
  -11.4509    0.1823   -3.0949 H   0  0  0  0  0  0  0  0  0  0  0  0
  -10.5794   -0.3981   -4.5323 H   0  0  0  0  0  0  0  0  0  0  0  0
    4.2752   -5.8333    2.5619 H   0  0  0  0  0  0  0  0  0  0  0  0
    0.4889   -7.7438    1.6608 H   0  0  0  0  0  0  0  0  0  0  0  0
    0.8112    7.3950   -2.1092 H   0  0  0  0  0  0  0  0  0  0  0  0
   -3.4891    7.3160   -1.5574 H   0  0  0  0  0  0  0  0  0  0  0  0
    3.4033   -3.3493    1.9022 O   0  0  0  0  0  0  0  0  0  0  0  0
   -0.7260   -5.4300    0.9225 O   0  0  0  0  0  0  0  0  0  0  0  0
    1.1428    4.7922   -1.3705 O   0  0  0  0  0  0  0  0  0  0  0  0
   -3.5386    4.7198   -0.7612 O   0  0  0  0  0  0  0  0  0  0  0  0
    4.7359   -3.3571    2.3138 C   0  0  0  0  0  0  0  0  0  0  0  0
    5.7555   -3.6059    1.3848 C   0  0  0  0  0  0  0  0  0  0  0  0
    5.0420   -3.0365    3.6430 C   0  0  0  0  0  0  0  0  0  0  0  0
    7.0925   -3.5395    1.7978 C   0  0  0  0  0  0  0  0  0  0  0  0
    5.4912   -3.8431    0.3493 H   0  0  0  0  0  0  0  0  0  0  0  0
    6.3830   -2.9718    4.0443 C   0  0  0  0  0  0  0  0  0  0  0  0
    4.2232   -2.8375    4.3422 H   0  0  0  0  0  0  0  0  0  0  0  0
    7.4100   -3.2244    3.1255 C   0  0  0  0  0  0  0  0  0  0  0  0
    7.8934   -3.7322    1.0747 H   0  0  0  0  0  0  0  0  0  0  0  0
    6.6281   -2.7210    5.0825 H   0  0  0  0  0  0  0  0  0  0  0  0
    8.4598   -3.1740    3.4439 H   0  0  0  0  0  0  0  0  0  0  0  0
   -1.6752   -6.4358    1.0729 C   0  0  0  0  0  0  0  0  0  0  0  0
   -2.0567   -6.8992    2.3403 C   0  0  0  0  0  0  0  0  0  0  0  0
   -2.3045   -6.9195   -0.0824 C   0  0  0  0  0  0  0  0  0  0  0  0
   -3.0607   -7.8698    2.4431 C   0  0  0  0  0  0  0  0  0  0  0  0
   -1.5682   -6.4935    3.2327 H   0  0  0  0  0  0  0  0  0  0  0  0
   -3.3132   -7.8838    0.0348 C   0  0  0  0  0  0  0  0  0  0  0  0
   -1.9967   -6.5236   -1.0556 H   0  0  0  0  0  0  0  0  0  0  0  0
   -3.6898   -8.3669    1.2944 C   0  0  0  0  0  0  0  0  0  0  0  0
   -3.3587   -8.2374    3.4312 H   0  0  0  0  0  0  0  0  0  0  0  0
   -3.8074   -8.2621   -0.8666 H   0  0  0  0  0  0  0  0  0  0  0  0
   -4.4755   -9.1289    1.3820 H   0  0  0  0  0  0  0  0  0  0  0  0
    2.3990    5.3688   -1.2466 C   0  0  0  0  0  0  0  0  0  0  0  0
    2.6733    6.4313   -0.3709 C   0  0  0  0  0  0  0  0  0  0  0  0
    3.4371    4.7683   -1.9772 C   0  0  0  0  0  0  0  0  0  0  0  0
    3.9872    6.9016   -0.2514 C   0  0  0  0  0  0  0  0  0  0  0  0
    1.8645    6.8813    0.2150 H   0  0  0  0  0  0  0  0  0  0  0  0
    4.7465    5.2392   -1.8402 C   0  0  0  0  0  0  0  0  0  0  0  0
    3.2099    3.9278   -2.6408 H   0  0  0  0  0  0  0  0  0  0  0  0
    5.0268    6.3124   -0.9831 C   0  0  0  0  0  0  0  0  0  0  0  0
    4.2015    7.7336    0.4316 H   0  0  0  0  0  0  0  0  0  0  0  0
    5.5409    4.7494   -2.4141 H   0  0  0  0  0  0  0  0  0  0  0  0
    6.0533    6.6881   -0.8793 H   0  0  0  0  0  0  0  0  0  0  0  0
   -4.8281    5.0893   -1.1254 C   0  0  0  0  0  0  0  0  0  0  0  0
   -5.1877    5.3005   -2.4644 C   0  0  0  0  0  0  0  0  0  0  0  0
   -5.7932    5.1583   -0.1102 C   0  0  0  0  0  0  0  0  0  0  0  0
   -6.5185    5.6015   -2.7791 C   0  0  0  0  0  0  0  0  0  0  0  0
   -4.4269    5.2211   -3.2480 H   0  0  0  0  0  0  0  0  0  0  0  0
   -7.1219    5.4527   -0.4397 C   0  0  0  0  0  0  0  0  0  0  0  0
   -5.4849    4.9709    0.9232 H   0  0  0  0  0  0  0  0  0  0  0  0
   -7.4886    5.6814   -1.7719 C   0  0  0  0  0  0  0  0  0  0  0  0
   -6.8024    5.7669   -3.8241 H   0  0  0  0  0  0  0  0  0  0  0  0
   -7.8772    5.5055    0.3518 H   0  0  0  0  0  0  0  0  0  0  0  0
   -8.5306    5.9164   -2.0263 H   0  0  0  0  0  0  0  0  0  0  0  0
    1.2357    0.3890    0.1189 N   0  0  0  0  0  0  0  0  0  0  0  0
    2.4975    0.0853    0.1765 C   0  0  0  0  0  0  0  0  0  0  0  0
    3.1236   -0.6160   -0.8902 C   0  0  0  0  0  0  0  0  0  0  0  0
    4.4493   -0.9609   -0.8199 C   0  0  0  0  0  0  0  0  0  0  0  0
    5.2152   -0.6117    0.2853 C   0  0  0  0  0  0  0  0  0  0  0  0
    4.6261    0.0877    1.3301 C   0  0  0  0  0  0  0  0  0  0  0  0
    3.2988    0.4518    1.3020 C   0  0  0  0  0  0  0  0  0  0  0  0
    2.6386    1.2060    2.4132 C   0  0  0  0  0  0  0  0  0  0  0  0
    2.0787    2.5660    1.9554 C   0  0  0  0  0  0  0  0  0  0  0  0
    3.1103    3.6404    1.9529 C   0  0  0  0  0  0  0  0  0  0  0  0
    4.4540    3.5719    1.4935 C   0  0  0  0  0  0  0  0  0  0  0  0
    5.0020    4.7868    1.7488 C   0  0  0  0  0  0  0  0  0  0  0  0
    4.1020    5.6077    2.3121 O   0  0  0  0  0  0  0  0  0  0  0  0
    2.9629    4.9056    2.4372 C   0  0  0  0  0  0  0  0  0  0  0  0
    2.5183   -0.8828   -1.7419 H   0  0  0  0  0  0  0  0  0  0  0  0
    4.8968   -1.5057   -1.6382 H   0  0  0  0  0  0  0  0  0  0  0  0
    6.2587   -0.8785    0.3341 H   0  0  0  0  0  0  0  0  0  0  0  0
    5.2222    0.3552    2.1905 H   0  0  0  0  0  0  0  0  0  0  0  0
    1.8068    0.5973    2.7796 H   0  0  0  0  0  0  0  0  0  0  0  0
    3.3590    1.3531    3.2190 H   0  0  0  0  0  0  0  0  0  0  0  0
    1.6534    2.4460    0.9532 H   0  0  0  0  0  0  0  0  0  0  0  0
    1.2620    2.8799    2.6098 H   0  0  0  0  0  0  0  0  0  0  0  0
    4.9339    2.7311    1.0391 H   0  0  0  0  0  0  0  0  0  0  0  0
    5.9867    5.1754    1.5869 H   0  0  0  0  0  0  0  0  0  0  0  0
    2.1211    5.3978    2.8844 H   0  0  0  0  0  0  0  0  0  0  0  0
  1  4  4  0  0  0  0
  3  4  4  0  0  0  0
  4  5  1  0  0  0  0
  5  6  1  0  0  0  0
  5  7  2  0  0  0  0
  7  8  1  0  0  0  0
  1  9  4  0  0  0  0
  7  9  1  0  0  0  0
  9 10  4  0  0  0  0
  2 11  4  0  0  0  0
 10 11  4  0  0  0  0
 11 12  1  0  0  0  0
 12 13  1  0  0  0  0
 12 14  2  0  0  0  0
 14 15  1  0  0  0  0
  2 16  4  0  0  0  0
 14 16  1  0  0  0  0
 10 17  1  0  0  0  0
 17 18  4  0  0  0  0
 18 19  4  0  0  0  0
 19 20  4  0  0  0  0
 20 21  1  0  0  0  0
 20 22  4  0  0  0  0
 17 23  4  0  0  0  0
 22 23  4  0  0  0  0
 16 26  4  0  0  0  0
 24 27  4  0  0  0  0
 26 27  4  0  0  0  0
 27 28  1  0  0  0  0
 28 29  1  0  0  0  0
 28 30  2  0  0  0  0
 30 31  1  0  0  0  0
 24 32  4  0  0  0  0
 30 32  1  0  0  0  0
 32 33  4  0  0  0  0
 25 34  4  0  0  0  0
 33 34  4  0  0  0  0
 34 35  1  0  0  0  0
 35 36  1  0  0  0  0
 35 37  2  0  0  0  0
 37 38  1  0  0  0  0
  3 39  4  0  0  0  0
 25 39  4  0  0  0  0
 37 39  1  0  0  0  0
 33 40  1  0  0  0  0
 40 41  4  0  0  0  0
 41 42  4  0  0  0  0
 42 43  4  0  0  0  0
 43 44  1  0  0  0  0
 43 45  4  0  0  0  0
 40 46  4  0  0  0  0
 45 46  4  0  0  0  0
  1 47  1  0  0  0  0
  2 47  1  0  0  0  0
 24 47  1  0  0  0  0
 25 47  1  0  0  0  0
 47 48  1  0  0  0  0
 26 49  1  0  0  0  0
 49 50  4  0  0  0  0
 49 51  4  0  0  0  0
 50 52  4  0  0  0  0
 50 53  1  0  0  0  0
 51 54  4  0  0  0  0
 51 55  1  0  0  0  0
 52 56  1  0  0  0  0
 52 57  4  0  0  0  0
 54 57  4  0  0  0  0
 53 58  4  0  0  0  0
 53 59  1  0  0  0  0
 54 60  1  0  0  0  0
 55 61  4  0  0  0  0
 55 62  1  0  0  0  0
 57 63  1  0  0  0  0
 58 64  2  0  0  0  0
 58 65  1  0  0  0  0
 61 66  2  0  0  0  0
 61 67  1  0  0  0  0
 65 68  1  0  0  0  0
 65 69  1  0  0  0  0
 65 70  1  0  0  0  0
 68 70  1  0  0  0  0
 67 71  1  0  0  0  0
 67 72  1  0  0  0  0
 67 73  1  0  0  0  0
 71 73  1  0  0  0  0
 68 74  1  0  0  0  0
 68 75  1  0  0  0  0
 70 76  1  0  0  0  0
 70 77  1  0  0  0  0
 71 78  1  0  0  0  0
 71 79  1  0  0  0  0
 73 80  1  0  0  0  0
 73 81  1  0  0  0  0
 77 82  1  0  0  0  0
 77 83  2  0  0  0  0
 81 84  1  0  0  0  0
 81 85  2  0  0  0  0
 82 86  1  0  0  0  0
 84 87  1  0  0  0  0
 86 88  1  0  0  0  0
 86 89  1  0  0  0  0
 86 90  1  0  0  0  0
 87 91  1  0  0  0  0
 87 92  1  0  0  0  0
 87 93  1  0  0  0  0
 88 94  1  0  0  0  0
 88 95  1  0  0  0  0
 88 96  1  0  0  0  0
 89 97  1  0  0  0  0
 89 98  1  0  0  0  0
 89 99  1  0  0  0  0
 91100  1  0  0  0  0
 91101  1  0  0  0  0
 91102  1  0  0  0  0
 92103  1  0  0  0  0
 92104  1  0  0  0  0
 92105  1  0  0  0  0
  3106  1  0  0  0  0
106107  4  0  0  0  0
106108  4  0  0  0  0
107109  4  0  0  0  0
107110  1  0  0  0  0
108111  4  0  0  0  0
108112  1  0  0  0  0
109113  1  0  0  0  0
109114  4  0  0  0  0
111114  4  0  0  0  0
110115  4  0  0  0  0
110116  1  0  0  0  0
111117  1  0  0  0  0
112118  4  0  0  0  0
112119  1  0  0  0  0
114120  1  0  0  0  0
115121  2  0  0  0  0
115122  1  0  0  0  0
118123  2  0  0  0  0
118124  1  0  0  0  0
122125  1  0  0  0  0
122126  1  0  0  0  0
122127  1  0  0  0  0
125127  1  0  0  0  0
124128  1  0  0  0  0
124129  1  0  0  0  0
124130  1  0  0  0  0
128130  1  0  0  0  0
125131  1  0  0  0  0
125132  1  0  0  0  0
127133  1  0  0  0  0
127134  1  0  0  0  0
128135  1  0  0  0  0
128136  1  0  0  0  0
130137  1  0  0  0  0
130138  1  0  0  0  0
134139  1  0  0  0  0
134140  2  0  0  0  0
138141  1  0  0  0  0
138142  2  0  0  0  0
139143  1  0  0  0  0
141144  1  0  0  0  0
143145  1  0  0  0  0
143146  1  0  0  0  0
143147  1  0  0  0  0
144148  1  0  0  0  0
144149  1  0  0  0  0
144150  1  0  0  0  0
145151  1  0  0  0  0
145152  1  0  0  0  0
145153  1  0  0  0  0
146154  1  0  0  0  0
146155  1  0  0  0  0
146156  1  0  0  0  0
148157  1  0  0  0  0
148158  1  0  0  0  0
148159  1  0  0  0  0
149160  1  0  0  0  0
149161  1  0  0  0  0
149162  1  0  0  0  0
 19163  1  0  0  0  0
 22164  1  0  0  0  0
 42165  1  0  0  0  0
 45166  1  0  0  0  0
 18167  1  0  0  0  0
 23168  1  0  0  0  0
 41169  1  0  0  0  0
 46170  1  0  0  0  0
167171  1  0  0  0  0
171172  4  0  0  0  0
171173  4  0  0  0  0
172174  4  0  0  0  0
172175  1  0  0  0  0
173176  4  0  0  0  0
173177  1  0  0  0  0
174178  4  0  0  0  0
176178  4  0  0  0  0
174179  1  0  0  0  0
176180  1  0  0  0  0
178181  1  0  0  0  0
168182  1  0  0  0  0
182183  4  0  0  0  0
182184  4  0  0  0  0
183185  4  0  0  0  0
183186  1  0  0  0  0
184187  4  0  0  0  0
184188  1  0  0  0  0
185189  4  0  0  0  0
187189  4  0  0  0  0
185190  1  0  0  0  0
187191  1  0  0  0  0
189192  1  0  0  0  0
169193  1  0  0  0  0
193194  4  0  0  0  0
193195  4  0  0  0  0
194196  4  0  0  0  0
194197  1  0  0  0  0
195198  4  0  0  0  0
195199  1  0  0  0  0
196200  4  0  0  0  0
198200  4  0  0  0  0
196201  1  0  0  0  0
198202  1  0  0  0  0
200203  1  0  0  0  0
170204  1  0  0  0  0
204205  4  0  0  0  0
204206  4  0  0  0  0
205207  4  0  0  0  0
205208  1  0  0  0  0
206209  4  0  0  0  0
206210  1  0  0  0  0
207211  4  0  0  0  0
209211  4  0  0  0  0
207212  1  0  0  0  0
209213  1  0  0  0  0
211214  1  0  0  0  0
 47215  2  0  0  0  0
215216  4  0  0  0  0
216217  1  0  0  0  0
217218  2  0  0  0  0
218219  4  0  0  0  0
219220  4  0  0  0  0
216221  1  0  0  0  0
220221  4  0  0  0  0
221222  1  0  0  0  0
222223  1  0  0  0  0
223224  1  0  0  0  0
224225  4  0  0  0  0
225226  2  0  0  0  0
226227  1  0  0  0  0
224228  2  0  0  0  0
227228  1  0  0  0  0
217229  1  0  0  0  0
218230  1  0  0  0  0
219231  1  0  0  0  0
220232  1  0  0  0  0
222233  1  0  0  0  0
222234  1  0  0  0  0
223235  1  0  0  0  0
223236  1  0  0  0  0
225237  1  0  0  0  0
226238  1  0  0  0  0
228239  1  0  0  0  0
M  END
