
     RDKit          3D

 33 35  0  0  0  0  0  0  0  0999 V2000
   -3.1229    1.7547   -1.6975 N   0  0  0  0  0  1  0  0  0  0  0  0
   -3.6449    0.7750   -0.8022 C   0  0  0  0  0  0  0  0  0  0  0  0
   -5.0084    0.7980   -0.4847 C   0  0  0  0  0  0  0  0  0  0  0  0
   -5.5410   -0.1412    0.4016 C   0  0  0  0  0  0  0  0  0  0  0  0
   -4.7128   -1.1056    0.9791 C   0  0  0  0  0  0  0  0  0  0  0  0
   -3.3507   -1.1367    0.6682 C   0  0  0  0  0  0  0  0  0  0  0  0
   -2.8048   -0.2068   -0.2340 C   0  0  0  0  0  0  0  0  0  0  0  0
   -1.3254   -0.2389   -0.5293 C   0  0  0  0  0  0  0  0  0  0  0  0
   -0.5645    0.6856    0.4256 C   0  0  0  0  0  0  0  0  0  0  0  0
    0.9101    0.6541    0.1284 C   0  0  0  0  0  0  0  0  0  0  0  0
    1.4638    1.5446   -0.8140 C   0  0  0  0  0  0  0  0  0  0  0  0
    2.8301    1.4908   -1.1201 C   0  0  0  0  0  0  0  0  0  0  0  0
    3.6313    0.5360   -0.4922 C   0  0  0  0  0  0  0  0  0  0  0  0
    5.3730    0.3406   -0.7850 S   0  0  0  0  0  0  0  0  0  0  0  0
    5.4714   -0.6981    0.7218 C   0  0  0  0  0  0  0  0  0  0  0  0
    4.0832   -1.2689    1.0386 C   0  0  0  0  0  0  0  0  0  0  0  0
    3.1011   -0.3322    0.4378 C   0  0  0  0  0  0  0  0  0  0  0  0
    1.7381   -0.3000    0.7495 C   0  0  0  0  0  0  0  0  0  0  0  0
   -5.6561    1.5474   -0.9223 H   0  0  0  0  0  0  0  0  0  0  0  0
   -6.5954   -0.1181    0.6448 H   0  0  0  0  0  0  0  0  0  0  0  0
   -5.1259   -1.8280    1.6712 H   0  0  0  0  0  0  0  0  0  0  0  0
   -2.7205   -1.8854    1.1322 H   0  0  0  0  0  0  0  0  0  0  0  0
   -1.1391    0.0672   -1.5819 H   0  0  0  0  0  0  0  0  0  0  0  0
   -0.9421   -1.2782   -0.4240 H   0  0  0  0  0  0  0  0  0  0  0  0
   -0.7434    0.3675    1.4766 H   0  0  0  0  0  0  0  0  0  0  0  0
   -0.9453    1.7260    0.3262 H   0  0  0  0  0  0  0  0  0  0  0  0
    0.8371    2.2740   -1.3121 H   0  0  0  0  0  0  0  0  0  0  0  0
    3.2548    2.1740   -1.8441 H   0  0  0  0  0  0  0  0  0  0  0  0
    5.8134   -0.0594    1.5644 H   0  0  0  0  0  0  0  0  0  0  0  0
    6.2060   -1.5172    0.5722 H   0  0  0  0  0  0  0  0  0  0  0  0
    3.9652   -2.2696    0.5702 H   0  0  0  0  0  0  0  0  0  0  0  0
    3.9348   -1.3502    2.1371 H   0  0  0  0  0  0  0  0  0  0  0  0
    1.3299   -1.0013    1.4671 H   0  0  0  0  0  0  0  0  0  0  0  0
  1  2  1  0
  2  3  2  0
  3  4  1  0
  4  5  2  0
  5  6  1  0
  6  7  2  0
  7  8  1  0
  8  9  1  0
  9 10  1  0
 10 11  1  0
 11 12  2  0
 12 13  1  0
 13 14  1  0
 14 15  1  0
 15 16  1  0
 16 17  1  0
 17 18  1  0
  7  2  1  0
 17 13  2  0
 18 10  2  0
  3 19  1  0
  4 20  1  0
  5 21  1  0
  6 22  1  0
  8 23  1  0
  8 24  1  0
  9 25  1  0
  9 26  1  0
 11 27  1  0
 12 28  1  0
 15 29  1  0
 15 30  1  0
 16 31  1  0
 16 32  1  0
 18 33  1  0
M  RAD  1   1   3
M  END
$$$$
