
     RDKit          3D

 33 35  0  0  0  0  0  0  0  0999 V2000
    3.3523    1.9766    1.1937 N   0  0  0  0  0  1  0  0  0  0  0  0
    2.9121    1.1496    0.1187 C   0  0  0  0  0  0  0  0  0  0  0  0
    3.1298    1.5693   -1.1991 C   0  0  0  0  0  0  0  0  0  0  0  0
    2.6953    0.7838   -2.2694 C   0  0  0  0  0  0  0  0  0  0  0  0
    2.0411   -0.4257   -2.0285 C   0  0  0  0  0  0  0  0  0  0  0  0
    1.8222   -0.8545   -0.7170 C   0  0  0  0  0  0  0  0  0  0  0  0
    2.2584   -0.0756    0.3699 C   0  0  0  0  0  0  0  0  0  0  0  0
    1.9560   -0.5291    1.7801 C   0  0  0  0  0  0  0  0  0  0  0  0
    0.6985    0.1499    2.3424 C   0  0  0  0  0  0  0  0  0  0  0  0
   -0.5317   -0.2127    1.5508 C   0  0  0  0  0  0  0  0  0  0  0  0
   -1.1924   -1.4353    1.7866 C   0  0  0  0  0  0  0  0  0  0  0  0
   -2.2986   -1.8029    1.0092 C   0  0  0  0  0  0  0  0  0  0  0  0
   -2.7356   -0.9452   -0.0014 C   0  0  0  0  0  0  0  0  0  0  0  0
   -4.1052   -1.2843   -1.0813 S   0  0  0  0  0  0  0  0  0  0  0  0
   -3.4949    0.0305   -2.2029 C   0  0  0  0  0  0  0  0  0  0  0  0
   -2.6137    1.0050   -1.4110 C   0  0  0  0  0  0  0  0  0  0  0  0
   -2.0761    0.2368   -0.2607 C   0  0  0  0  0  0  0  0  0  0  0  0
   -0.9798    0.6276    0.5134 C   0  0  0  0  0  0  0  0  0  0  0  0
    3.6321    2.5084   -1.3947 H   0  0  0  0  0  0  0  0  0  0  0  0
    2.8627    1.1147   -3.2862 H   0  0  0  0  0  0  0  0  0  0  0  0
    1.6987   -1.0297   -2.8588 H   0  0  0  0  0  0  0  0  0  0  0  0
    1.2995   -1.7880   -0.5481 H   0  0  0  0  0  0  0  0  0  0  0  0
    1.8275   -1.6336    1.8131 H   0  0  0  0  0  0  0  0  0  0  0  0
    2.8190   -0.2961    2.4403 H   0  0  0  0  0  0  0  0  0  0  0  0
    0.8386    1.2530    2.3555 H   0  0  0  0  0  0  0  0  0  0  0  0
    0.5618   -0.1670    3.3991 H   0  0  0  0  0  0  0  0  0  0  0  0
   -0.8446   -2.1036    2.5646 H   0  0  0  0  0  0  0  0  0  0  0  0
   -2.8063   -2.7412    1.1910 H   0  0  0  0  0  0  0  0  0  0  0  0
   -4.3514    0.5650   -2.6650 H   0  0  0  0  0  0  0  0  0  0  0  0
   -2.8941   -0.4469   -3.0066 H   0  0  0  0  0  0  0  0  0  0  0  0
   -3.2249    1.8512   -1.0302 H   0  0  0  0  0  0  0  0  0  0  0  0
   -1.7906    1.3942   -2.0486 H   0  0  0  0  0  0  0  0  0  0  0  0
   -0.4658    1.5555    0.2935 H   0  0  0  0  0  0  0  0  0  0  0  0
  1  2  1  0
  2  3  2  0
  3  4  1  0
  4  5  2  0
  5  6  1  0
  6  7  2  0
  7  8  1  0
  8  9  1  0
  9 10  1  0
 10 11  1  0
 11 12  2  0
 12 13  1  0
 13 14  1  0
 14 15  1  0
 15 16  1  0
 16 17  1  0
 17 18  1  0
  7  2  1  0
 17 13  2  0
 18 10  2  0
  3 19  1  0
  4 20  1  0
  5 21  1  0
  6 22  1  0
  8 23  1  0
  8 24  1  0
  9 25  1  0
  9 26  1  0
 11 27  1  0
 12 28  1  0
 15 29  1  0
 15 30  1  0
 16 31  1  0
 16 32  1  0
 18 33  1  0
M  RAD  1   1   3
M  END
$$$$
