
     RDKit          3D

 33 35  0  0  0  0  0  0  0  0999 V2000
   -3.7174   -1.7260    0.1419 N   0  0  0  0  0  1  0  0  0  0  0  0
   -3.1010   -0.4413    0.1970 C   0  0  0  0  0  0  0  0  0  0  0  0
   -3.4252    0.4272    1.2462 C   0  0  0  0  0  0  0  0  0  0  0  0
   -2.8243    1.6854    1.3303 C   0  0  0  0  0  0  0  0  0  0  0  0
   -1.8963    2.0828    0.3660 C   0  0  0  0  0  0  0  0  0  0  0  0
   -1.5688    1.2244   -0.6865 C   0  0  0  0  0  0  0  0  0  0  0  0
   -2.1696   -0.0435   -0.7857 C   0  0  0  0  0  0  0  0  0  0  0  0
   -1.7543   -0.9796   -1.8980 C   0  0  0  0  0  0  0  0  0  0  0  0
   -0.6918   -1.9859   -1.4322 C   0  0  0  0  0  0  0  0  0  0  0  0
    0.5822   -1.2978   -1.0142 C   0  0  0  0  0  0  0  0  0  0  0  0
    1.5196   -0.8898   -1.9847 C   0  0  0  0  0  0  0  0  0  0  0  0
    2.6746   -0.1941   -1.6038 C   0  0  0  0  0  0  0  0  0  0  0  0
    2.8834    0.0911   -0.2536 C   0  0  0  0  0  0  0  0  0  0  0  0
    4.2844    0.9832    0.3775 S   0  0  0  0  0  0  0  0  0  0  0  0
    3.3658    1.2398    1.9425 C   0  0  0  0  0  0  0  0  0  0  0  0
    2.2834    0.1614    2.0787 C   0  0  0  0  0  0  0  0  0  0  0  0
    1.9567   -0.2750    0.6985 C   0  0  0  0  0  0  0  0  0  0  0  0
    0.8057   -0.9824    0.3398 C   0  0  0  0  0  0  0  0  0  0  0  0
   -4.1403    0.1249    2.0011 H   0  0  0  0  0  0  0  0  0  0  0  0
   -3.0756    2.3514    2.1456 H   0  0  0  0  0  0  0  0  0  0  0  0
   -1.4263    3.0551    0.4366 H   0  0  0  0  0  0  0  0  0  0  0  0
   -0.8355    1.5427   -1.4173 H   0  0  0  0  0  0  0  0  0  0  0  0
   -1.3637   -0.4023   -2.7650 H   0  0  0  0  0  0  0  0  0  0  0  0
   -2.6419   -1.5359   -2.2687 H   0  0  0  0  0  0  0  0  0  0  0  0
   -1.0930   -2.5984   -0.5952 H   0  0  0  0  0  0  0  0  0  0  0  0
   -0.4733   -2.6884   -2.2656 H   0  0  0  0  0  0  0  0  0  0  0  0
    1.3498   -1.1033   -3.0327 H   0  0  0  0  0  0  0  0  0  0  0  0
    3.3946    0.1183   -2.3490 H   0  0  0  0  0  0  0  0  0  0  0  0
    4.0645    1.2037    2.8047 H   0  0  0  0  0  0  0  0  0  0  0  0
    2.8901    2.2435    1.9078 H   0  0  0  0  0  0  0  0  0  0  0  0
    1.3851    0.5714    2.5891 H   0  0  0  0  0  0  0  0  0  0  0  0
    2.6766   -0.7058    2.6515 H   0  0  0  0  0  0  0  0  0  0  0  0
    0.0817   -1.2569    1.0975 H   0  0  0  0  0  0  0  0  0  0  0  0
  1  2  1  0
  2  3  2  0
  3  4  1  0
  4  5  2  0
  5  6  1  0
  6  7  2  0
  7  8  1  0
  8  9  1  0
  9 10  1  0
 10 11  1  0
 11 12  2  0
 12 13  1  0
 13 14  1  0
 14 15  1  0
 15 16  1  0
 16 17  1  0
 17 18  1  0
  7  2  1  0
 17 13  2  0
 18 10  2  0
  3 19  1  0
  4 20  1  0
  5 21  1  0
  6 22  1  0
  8 23  1  0
  8 24  1  0
  9 25  1  0
  9 26  1  0
 11 27  1  0
 12 28  1  0
 15 29  1  0
 15 30  1  0
 16 31  1  0
 16 32  1  0
 18 33  1  0
M  RAD  1   1   3
M  END
$$$$
