
     RDKit          3D

 33 35  0  0  0  0  0  0  0  0999 V2000
   -3.5980   -0.4504    1.9333 N   0  0  0  0  0  1  0  0  0  0  0  0
   -3.1004    0.0828    0.7079 C   0  0  0  0  0  0  0  0  0  0  0  0
   -3.4501    1.3873    0.3390 C   0  0  0  0  0  0  0  0  0  0  0  0
   -2.9647    1.9372   -0.8498 C   0  0  0  0  0  0  0  0  0  0  0  0
   -2.1270    1.1862   -1.6765 C   0  0  0  0  0  0  0  0  0  0  0  0
   -1.7749   -0.1174   -1.3183 C   0  0  0  0  0  0  0  0  0  0  0  0
   -2.2607   -0.6851   -0.1267 C   0  0  0  0  0  0  0  0  0  0  0  0
   -1.8193   -2.0757    0.2700 C   0  0  0  0  0  0  0  0  0  0  0  0
   -0.6466   -2.0429    1.2608 C   0  0  0  0  0  0  0  0  0  0  0  0
    0.5807   -1.4158    0.6509 C   0  0  0  0  0  0  0  0  0  0  0  0
    1.4249   -2.1751   -0.1844 C   0  0  0  0  0  0  0  0  0  0  0  0
    2.5296   -1.5769   -0.8049 C   0  0  0  0  0  0  0  0  0  0  0  0
    2.7744   -0.2188   -0.5969 C   0  0  0  0  0  0  0  0  0  0  0  0
    4.1177    0.6813   -1.3334 S   0  0  0  0  0  0  0  0  0  0  0  0
    3.8021    2.0467   -0.1521 C   0  0  0  0  0  0  0  0  0  0  0  0
    2.3605    1.9518    0.3636 C   0  0  0  0  0  0  0  0  0  0  0  0
    1.9634    0.5284    0.2296 C   0  0  0  0  0  0  0  0  0  0  0  0
    0.8541   -0.0494    0.8537 C   0  0  0  0  0  0  0  0  0  0  0  0
   -4.0954    1.9784    0.9769 H   0  0  0  0  0  0  0  0  0  0  0  0
   -3.2352    2.9474   -1.1285 H   0  0  0  0  0  0  0  0  0  0  0  0
   -1.7461    1.6163   -2.5937 H   0  0  0  0  0  0  0  0  0  0  0  0
   -1.1122   -0.6806   -1.9639 H   0  0  0  0  0  0  0  0  0  0  0  0
   -1.5288   -2.6618   -0.6298 H   0  0  0  0  0  0  0  0  0  0  0  0
   -2.6703   -2.6191    0.7342 H   0  0  0  0  0  0  0  0  0  0  0  0
   -0.9449   -1.4945    2.1810 H   0  0  0  0  0  0  0  0  0  0  0  0
   -0.4109   -3.0837    1.5721 H   0  0  0  0  0  0  0  0  0  0  0  0
    1.2195   -3.2234   -0.3618 H   0  0  0  0  0  0  0  0  0  0  0  0
    3.1744   -2.1588   -1.4506 H   0  0  0  0  0  0  0  0  0  0  0  0
    3.9767    3.0256   -0.6463 H   0  0  0  0  0  0  0  0  0  0  0  0
    4.5100    1.9433    0.6982 H   0  0  0  0  0  0  0  0  0  0  0  0
    1.6881    2.5770   -0.2627 H   0  0  0  0  0  0  0  0  0  0  0  0
    2.3006    2.2835    1.4226 H   0  0  0  0  0  0  0  0  0  0  0  0
    0.2088    0.5561    1.4788 H   0  0  0  0  0  0  0  0  0  0  0  0
  1  2  1  0
  2  3  2  0
  3  4  1  0
  4  5  2  0
  5  6  1  0
  6  7  2  0
  7  8  1  0
  8  9  1  0
  9 10  1  0
 10 11  1  0
 11 12  2  0
 12 13  1  0
 13 14  1  0
 14 15  1  0
 15 16  1  0
 16 17  1  0
 17 18  1  0
  7  2  1  0
 17 13  2  0
 18 10  2  0
  3 19  1  0
  4 20  1  0
  5 21  1  0
  6 22  1  0
  8 23  1  0
  8 24  1  0
  9 25  1  0
  9 26  1  0
 11 27  1  0
 12 28  1  0
 15 29  1  0
 15 30  1  0
 16 31  1  0
 16 32  1  0
 18 33  1  0
M  RAD  1   1   3
M  END
$$$$
