
     RDKit          3D

 33 35  0  0  0  0  0  0  0  0999 V2000
   -3.4820   -1.7057   -1.0303 N   0  0  0  0  0  1  0  0  0  0  0  0
   -3.7856   -0.4449   -0.4373 C   0  0  0  0  0  0  0  0  0  0  0  0
   -5.0696    0.0913   -0.5935 C   0  0  0  0  0  0  0  0  0  0  0  0
   -5.3874    1.3318   -0.0353 C   0  0  0  0  0  0  0  0  0  0  0  0
   -4.4222    2.0453    0.6781 C   0  0  0  0  0  0  0  0  0  0  0  0
   -3.1381    1.5182    0.8395 C   0  0  0  0  0  0  0  0  0  0  0  0
   -2.8096    0.2639    0.2959 C   0  0  0  0  0  0  0  0  0  0  0  0
   -1.4074   -0.2702    0.4548 C   0  0  0  0  0  0  0  0  0  0  0  0
   -0.5345    0.1437   -0.7336 C   0  0  0  0  0  0  0  0  0  0  0  0
    0.8625   -0.3920   -0.5749 C   0  0  0  0  0  0  0  0  0  0  0  0
    1.1930   -1.6710   -1.0674 C   0  0  0  0  0  0  0  0  0  0  0  0
    2.4832   -2.1868   -0.8865 C   0  0  0  0  0  0  0  0  0  0  0  0
    3.4307   -1.4256   -0.2005 C   0  0  0  0  0  0  0  0  0  0  0  0
    5.0991   -1.9496    0.1145 S   0  0  0  0  0  0  0  0  0  0  0  0
    5.5180   -0.2213    0.5580 C   0  0  0  0  0  0  0  0  0  0  0  0
    4.2394    0.5263    0.9575 C   0  0  0  0  0  0  0  0  0  0  0  0
    3.1200   -0.1702    0.2759 C   0  0  0  0  0  0  0  0  0  0  0  0
    1.8352    0.3578    0.1134 C   0  0  0  0  0  0  0  0  0  0  0  0
   -5.8216   -0.4520   -1.1519 H   0  0  0  0  0  0  0  0  0  0  0  0
   -6.3809    1.7426   -0.1603 H   0  0  0  0  0  0  0  0  0  0  0  0
   -4.6682    3.0096    1.1037 H   0  0  0  0  0  0  0  0  0  0  0  0
   -2.3985    2.0888    1.3877 H   0  0  0  0  0  0  0  0  0  0  0  0
   -1.4282   -1.3786    0.5419 H   0  0  0  0  0  0  0  0  0  0  0  0
   -0.9602    0.1180    1.3969 H   0  0  0  0  0  0  0  0  0  0  0  0
   -0.9783   -0.2398   -1.6788 H   0  0  0  0  0  0  0  0  0  0  0  0
   -0.5059    1.2533   -0.8086 H   0  0  0  0  0  0  0  0  0  0  0  0
    0.4515   -2.2666   -1.5852 H   0  0  0  0  0  0  0  0  0  0  0  0
    2.7365   -3.1690   -1.2640 H   0  0  0  0  0  0  0  0  0  0  0  0
    6.2538   -0.2093    1.3895 H   0  0  0  0  0  0  0  0  0  0  0  0
    5.9733    0.2666   -0.3306 H   0  0  0  0  0  0  0  0  0  0  0  0
    4.2947    1.5913    0.6446 H   0  0  0  0  0  0  0  0  0  0  0  0
    4.0894    0.4668    2.0570 H   0  0  0  0  0  0  0  0  0  0  0  0
    1.5978    1.3374    0.5103 H   0  0  0  0  0  0  0  0  0  0  0  0
  1  2  1  0
  2  3  2  0
  3  4  1  0
  4  5  2  0
  5  6  1  0
  6  7  2  0
  7  8  1  0
  8  9  1  0
  9 10  1  0
 10 11  1  0
 11 12  2  0
 12 13  1  0
 13 14  1  0
 14 15  1  0
 15 16  1  0
 16 17  1  0
 17 18  1  0
  7  2  1  0
 17 13  2  0
 18 10  2  0
  3 19  1  0
  4 20  1  0
  5 21  1  0
  6 22  1  0
  8 23  1  0
  8 24  1  0
  9 25  1  0
  9 26  1  0
 11 27  1  0
 12 28  1  0
 15 29  1  0
 15 30  1  0
 16 31  1  0
 16 32  1  0
 18 33  1  0
M  RAD  1   1   3
M  END
$$$$
