
     RDKit          3D

 33 35  0  0  0  0  0  0  0  0999 V2000
   -3.1988   -1.8066   -1.5333 N   0  0  0  0  0  1  0  0  0  0  0  0
   -3.6700   -0.6689   -0.8143 C   0  0  0  0  0  0  0  0  0  0  0  0
   -5.0381   -0.5538   -0.5392 C   0  0  0  0  0  0  0  0  0  0  0  0
   -5.5226    0.5434    0.1768 C   0  0  0  0  0  0  0  0  0  0  0  0
   -4.6418    1.5293    0.6259 C   0  0  0  0  0  0  0  0  0  0  0  0
   -3.2747    1.4233    0.3560 C   0  0  0  0  0  0  0  0  0  0  0  0
   -2.7760    0.3320   -0.3766 C   0  0  0  0  0  0  0  0  0  0  0  0
   -1.2921    0.2218   -0.6276 C   0  0  0  0  0  0  0  0  0  0  0  0
   -0.6167   -0.5921    0.4800 C   0  0  0  0  0  0  0  0  0  0  0  0
    0.8623   -0.7033    0.2269 C   0  0  0  0  0  0  0  0  0  0  0  0
    1.3721   -1.7626   -0.5515 C   0  0  0  0  0  0  0  0  0  0  0  0
    2.7447   -1.8460   -0.8200 C   0  0  0  0  0  0  0  0  0  0  0  0
    3.5972   -0.8603   -0.3206 C   0  0  0  0  0  0  0  0  0  0  0  0
    5.3538   -0.8267   -0.5862 S   0  0  0  0  0  0  0  0  0  0  0  0
    5.4934    0.4230    0.7473 C   0  0  0  0  0  0  0  0  0  0  0  0
    4.1419    1.1253    0.9306 C   0  0  0  0  0  0  0  0  0  0  0  0
    3.1097    0.1735    0.4496 C   0  0  0  0  0  0  0  0  0  0  0  0
    1.7417    0.2790    0.7205 C   0  0  0  0  0  0  0  0  0  0  0  0
   -5.7269   -1.3179   -0.8772 H   0  0  0  0  0  0  0  0  0  0  0  0
   -6.5808    0.6268    0.3881 H   0  0  0  0  0  0  0  0  0  0  0  0
   -5.0181    2.3751    1.1868 H   0  0  0  0  0  0  0  0  0  0  0  0
   -2.6039    2.1920    0.7198 H   0  0  0  0  0  0  0  0  0  0  0  0
   -1.1059   -0.2542   -1.6150 H   0  0  0  0  0  0  0  0  0  0  0  0
   -0.8401    1.2377   -0.6700 H   0  0  0  0  0  0  0  0  0  0  0  0
   -0.7944   -0.1048    1.4642 H   0  0  0  0  0  0  0  0  0  0  0  0
   -1.0664   -1.6083    0.5287 H   0  0  0  0  0  0  0  0  0  0  0  0
    0.7065   -2.5174   -0.9517 H   0  0  0  0  0  0  0  0  0  0  0  0
    3.1357   -2.6588   -1.4182 H   0  0  0  0  0  0  0  0  0  0  0  0
    5.7731   -0.0993    1.6874 H   0  0  0  0  0  0  0  0  0  0  0  0
    6.2859    1.1595    0.4973 H   0  0  0  0  0  0  0  0  0  0  0  0
    4.1032    2.0475    0.3119 H   0  0  0  0  0  0  0  0  0  0  0  0
    3.9772    1.3844    1.9988 H   0  0  0  0  0  0  0  0  0  0  0  0
    1.3686    1.1076    1.3101 H   0  0  0  0  0  0  0  0  0  0  0  0
  1  2  1  0
  2  3  2  0
  3  4  1  0
  4  5  2  0
  5  6  1  0
  6  7  2  0
  7  8  1  0
  8  9  1  0
  9 10  1  0
 10 11  1  0
 11 12  2  0
 12 13  1  0
 13 14  1  0
 14 15  1  0
 15 16  1  0
 16 17  1  0
 17 18  1  0
  7  2  1  0
 17 13  2  0
 18 10  2  0
  3 19  1  0
  4 20  1  0
  5 21  1  0
  6 22  1  0
  8 23  1  0
  8 24  1  0
  9 25  1  0
  9 26  1  0
 11 27  1  0
 12 28  1  0
 15 29  1  0
 15 30  1  0
 16 31  1  0
 16 32  1  0
 18 33  1  0
M  RAD  1   1   3
M  END
$$$$
