
     RDKit          3D

 33 35  0  0  0  0  0  0  0  0999 V2000
   -3.4761    1.0336    1.7771 N   0  0  0  0  0  1  0  0  0  0  0  0
   -3.0238    0.0710    0.8274 C   0  0  0  0  0  0  0  0  0  0  0  0
   -3.2884   -1.2855    1.0511 C   0  0  0  0  0  0  0  0  0  0  0  0
   -2.8441   -2.2490    0.1425 C   0  0  0  0  0  0  0  0  0  0  0  0
   -2.1329   -1.8621   -0.9947 C   0  0  0  0  0  0  0  0  0  0  0  0
   -1.8666   -0.5106   -1.2282 C   0  0  0  0  0  0  0  0  0  0  0  0
   -2.3124    0.4703   -0.3241 C   0  0  0  0  0  0  0  0  0  0  0  0
   -1.9620    1.9209   -0.5664 C   0  0  0  0  0  0  0  0  0  0  0  0
   -0.7234    2.3513    0.2328 C   0  0  0  0  0  0  0  0  0  0  0  0
    0.5057    1.5891   -0.1910 C   0  0  0  0  0  0  0  0  0  0  0  0
    1.2223    1.9804   -1.3401 C   0  0  0  0  0  0  0  0  0  0  0  0
    2.3264    1.2344   -1.7731 C   0  0  0  0  0  0  0  0  0  0  0  0
    2.6980    0.0928   -1.0614 C   0  0  0  0  0  0  0  0  0  0  0  0
    4.0563   -0.9644   -1.5021 S   0  0  0  0  0  0  0  0  0  0  0  0
    3.9404   -1.7419    0.1537 C   0  0  0  0  0  0  0  0  0  0  0  0
    2.5361   -1.5135    0.7272 C   0  0  0  0  0  0  0  0  0  0  0  0
    2.0129   -0.2894    0.0716 C   0  0  0  0  0  0  0  0  0  0  0  0
    0.9061    0.4393    0.5165 C   0  0  0  0  0  0  0  0  0  0  0  0
   -3.8352   -1.5946    1.9332 H   0  0  0  0  0  0  0  0  0  0  0  0
   -3.0482   -3.2966    0.3221 H   0  0  0  0  0  0  0  0  0  0  0  0
   -1.7832   -2.6104   -1.6941 H   0  0  0  0  0  0  0  0  0  0  0  0
   -1.3006   -0.2293   -2.1078 H   0  0  0  0  0  0  0  0  0  0  0  0
   -1.7860    2.1017   -1.6498 H   0  0  0  0  0  0  0  0  0  0  0  0
   -2.8203    2.5653   -0.2786 H   0  0  0  0  0  0  0  0  0  0  0  0
   -0.5541    3.4385    0.0740 H   0  0  0  0  0  0  0  0  0  0  0  0
   -0.9088    2.2129    1.3205 H   0  0  0  0  0  0  0  0  0  0  0  0
    0.9179    2.8539   -1.9032 H   0  0  0  0  0  0  0  0  0  0  0  0
    2.8729    1.5318   -2.6586 H   0  0  0  0  0  0  0  0  0  0  0  0
    4.1608   -2.8277    0.0806 H   0  0  0  0  0  0  0  0  0  0  0  0
    4.6956   -1.2668    0.8161 H   0  0  0  0  0  0  0  0  0  0  0  0
    2.5793   -1.3862    1.8304 H   0  0  0  0  0  0  0  0  0  0  0  0
    1.8757   -2.3711    0.4751 H   0  0  0  0  0  0  0  0  0  0  0  0
    0.3597    0.1118    1.3927 H   0  0  0  0  0  0  0  0  0  0  0  0
  1  2  1  0
  2  3  2  0
  3  4  1  0
  4  5  2  0
  5  6  1  0
  6  7  2  0
  7  8  1  0
  8  9  1  0
  9 10  1  0
 10 11  1  0
 11 12  2  0
 12 13  1  0
 13 14  1  0
 14 15  1  0
 15 16  1  0
 16 17  1  0
 17 18  1  0
  7  2  1  0
 17 13  2  0
 18 10  2  0
  3 19  1  0
  4 20  1  0
  5 21  1  0
  6 22  1  0
  8 23  1  0
  8 24  1  0
  9 25  1  0
  9 26  1  0
 11 27  1  0
 12 28  1  0
 15 29  1  0
 15 30  1  0
 16 31  1  0
 16 32  1  0
 18 33  1  0
M  RAD  1   1   3
M  END
$$$$
