
     RDKit          3D

 33 35  0  0  0  0  0  0  0  0999 V2000
   -1.5682   -0.6739   -1.7457 N   0  0  0  0  0  1  0  0  0  0  0  0
   -1.7520   -1.1614   -0.4183 C   0  0  0  0  0  0  0  0  0  0  0  0
   -2.8077   -0.6572    0.3506 C   0  0  0  0  0  0  0  0  0  0  0  0
   -3.0036   -1.1056    1.6587 C   0  0  0  0  0  0  0  0  0  0  0  0
   -2.1440   -2.0592    2.2068 C   0  0  0  0  0  0  0  0  0  0  0  0
   -1.0861   -2.5672    1.4484 C   0  0  0  0  0  0  0  0  0  0  0  0
   -0.8808   -2.1301    0.1281 C   0  0  0  0  0  0  0  0  0  0  0  0
    0.3063   -2.6563   -0.6473 C   0  0  0  0  0  0  0  0  0  0  0  0
    1.6076   -1.9419   -0.2540 C   0  0  0  0  0  0  0  0  0  0  0  0
    1.5694   -0.4776   -0.6070 C   0  0  0  0  0  0  0  0  0  0  0  0
    1.8663   -0.0559   -1.9189 C   0  0  0  0  0  0  0  0  0  0  0  0
    1.7708    1.2984   -2.2651 C   0  0  0  0  0  0  0  0  0  0  0  0
    1.3767    2.2225   -1.2962 C   0  0  0  0  0  0  0  0  0  0  0  0
    1.1873    3.9644   -1.5908 S   0  0  0  0  0  0  0  0  0  0  0  0
    0.2233    4.0820   -0.0365 C   0  0  0  0  0  0  0  0  0  0  0  0
    0.5834    2.9018    0.8750 C   0  0  0  0  0  0  0  0  0  0  0  0
    1.0538    1.8154   -0.0198 C   0  0  0  0  0  0  0  0  0  0  0  0
    1.1572    0.4710    0.3486 C   0  0  0  0  0  0  0  0  0  0  0  0
   -3.4757    0.0870   -0.0648 H   0  0  0  0  0  0  0  0  0  0  0  0
   -3.8205   -0.7112    2.2490 H   0  0  0  0  0  0  0  0  0  0  0  0
   -2.2943   -2.4018    3.2224 H   0  0  0  0  0  0  0  0  0  0  0  0
   -0.4206   -3.2972    1.8926 H   0  0  0  0  0  0  0  0  0  0  0  0
    0.1434   -2.5660   -1.7428 H   0  0  0  0  0  0  0  0  0  0  0  0
    0.4223   -3.7425   -0.4402 H   0  0  0  0  0  0  0  0  0  0  0  0
    1.7947   -2.0724    0.8347 H   0  0  0  0  0  0  0  0  0  0  0  0
    2.4568   -2.4259   -0.7838 H   0  0  0  0  0  0  0  0  0  0  0  0
    2.1612   -0.7766   -2.6714 H   0  0  0  0  0  0  0  0  0  0  0  0
    1.9990    1.6220   -3.2723 H   0  0  0  0  0  0  0  0  0  0  0  0
   -0.8575    4.0400   -0.2916 H   0  0  0  0  0  0  0  0  0  0  0  0
    0.4347    5.0467    0.4710 H   0  0  0  0  0  0  0  0  0  0  0  0
    1.4064    3.1877    1.5647 H   0  0  0  0  0  0  0  0  0  0  0  0
   -0.3025    2.5773    1.4627 H   0  0  0  0  0  0  0  0  0  0  0  0
    0.8930    0.1637    1.3532 H   0  0  0  0  0  0  0  0  0  0  0  0
  1  2  1  0
  2  3  2  0
  3  4  1  0
  4  5  2  0
  5  6  1  0
  6  7  2  0
  7  8  1  0
  8  9  1  0
  9 10  1  0
 10 11  1  0
 11 12  2  0
 12 13  1  0
 13 14  1  0
 14 15  1  0
 15 16  1  0
 16 17  1  0
 17 18  1  0
  7  2  1  0
 17 13  2  0
 18 10  2  0
  3 19  1  0
  4 20  1  0
  5 21  1  0
  6 22  1  0
  8 23  1  0
  8 24  1  0
  9 25  1  0
  9 26  1  0
 11 27  1  0
 12 28  1  0
 15 29  1  0
 15 30  1  0
 16 31  1  0
 16 32  1  0
 18 33  1  0
M  RAD  1   1   3
M  END
$$$$
