
     RDKit          3D

 33 35  0  0  0  0  0  0  0  0999 V2000
   -3.4946   -1.3793    1.7755 N   0  0  0  0  0  1  0  0  0  0  0  0
   -2.9435   -0.1956    1.2024 C   0  0  0  0  0  0  0  0  0  0  0  0
   -3.0523    1.0144    1.8982 C   0  0  0  0  0  0  0  0  0  0  0  0
   -2.5082    2.1851    1.3646 C   0  0  0  0  0  0  0  0  0  0  0  0
   -1.8526    2.1530    0.1325 C   0  0  0  0  0  0  0  0  0  0  0  0
   -1.7419    0.9510   -0.5708 C   0  0  0  0  0  0  0  0  0  0  0  0
   -2.2891   -0.2343   -0.0473 C   0  0  0  0  0  0  0  0  0  0  0  0
   -2.1034   -1.5346   -0.7960 C   0  0  0  0  0  0  0  0  0  0  0  0
   -0.9152   -2.3426   -0.2539 C   0  0  0  0  0  0  0  0  0  0  0  0
    0.3877   -1.6067   -0.4343 C   0  0  0  0  0  0  0  0  0  0  0  0
    1.0503   -1.6317   -1.6782 C   0  0  0  0  0  0  0  0  0  0  0  0
    2.2286   -0.8973   -1.8666 C   0  0  0  0  0  0  0  0  0  0  0  0
    2.7354   -0.1403   -0.8092 C   0  0  0  0  0  0  0  0  0  0  0  0
    4.2021    0.8581   -0.9039 S   0  0  0  0  0  0  0  0  0  0  0  0
    3.6662    1.7195    0.6224 C   0  0  0  0  0  0  0  0  0  0  0  0
    2.6980    0.8193    1.4004 C   0  0  0  0  0  0  0  0  0  0  0  0
    2.0768   -0.0838    0.4000 C   0  0  0  0  0  0  0  0  0  0  0  0
    0.9082   -0.8209    0.6119 C   0  0  0  0  0  0  0  0  0  0  0  0
   -3.5549    1.0472    2.8568 H   0  0  0  0  0  0  0  0  0  0  0  0
   -2.5917    3.1172    1.9084 H   0  0  0  0  0  0  0  0  0  0  0  0
   -1.4253    3.0596   -0.2761 H   0  0  0  0  0  0  0  0  0  0  0  0
   -1.2167    0.9411   -1.5180 H   0  0  0  0  0  0  0  0  0  0  0  0
   -3.0262   -2.1481   -0.7131 H   0  0  0  0  0  0  0  0  0  0  0  0
   -1.9552   -1.3394   -1.8811 H   0  0  0  0  0  0  0  0  0  0  0  0
   -1.0791   -2.5811    0.8198 H   0  0  0  0  0  0  0  0  0  0  0  0
   -0.8661   -3.3137   -0.7927 H   0  0  0  0  0  0  0  0  0  0  0  0
    0.6491   -2.2117   -2.4999 H   0  0  0  0  0  0  0  0  0  0  0  0
    2.7377   -0.9173   -2.8214 H   0  0  0  0  0  0  0  0  0  0  0  0
    4.5489    1.9751    1.2456 H   0  0  0  0  0  0  0  0  0  0  0  0
    3.1491    2.6588    0.3303 H   0  0  0  0  0  0  0  0  0  0  0  0
    1.9267    1.4299    1.9180 H   0  0  0  0  0  0  0  0  0  0  0  0
    3.2551    0.2104    2.1445 H   0  0  0  0  0  0  0  0  0  0  0  0
    0.3963   -0.7610    1.5647 H   0  0  0  0  0  0  0  0  0  0  0  0
  1  2  1  0
  2  3  2  0
  3  4  1  0
  4  5  2  0
  5  6  1  0
  6  7  2  0
  7  8  1  0
  8  9  1  0
  9 10  1  0
 10 11  1  0
 11 12  2  0
 12 13  1  0
 13 14  1  0
 14 15  1  0
 15 16  1  0
 16 17  1  0
 17 18  1  0
  7  2  1  0
 17 13  2  0
 18 10  2  0
  3 19  1  0
  4 20  1  0
  5 21  1  0
  6 22  1  0
  8 23  1  0
  8 24  1  0
  9 25  1  0
  9 26  1  0
 11 27  1  0
 12 28  1  0
 15 29  1  0
 15 30  1  0
 16 31  1  0
 16 32  1  0
 18 33  1  0
M  RAD  1   1   3
M  END
$$$$
