
     RDKit          3D

 33 35  0  0  0  0  0  0  0  0999 V2000
   -1.6990   -0.2564   -1.5643 N   0  0  0  0  0  1  0  0  0  0  0  0
   -1.9690    0.5829   -0.4436 C   0  0  0  0  0  0  0  0  0  0  0  0
   -1.9811    1.9713   -0.6217 C   0  0  0  0  0  0  0  0  0  0  0  0
   -2.2286    2.8185    0.4607 C   0  0  0  0  0  0  0  0  0  0  0  0
   -2.4634    2.2827    1.7282 C   0  0  0  0  0  0  0  0  0  0  0  0
   -2.4514    0.8984    1.9170 C   0  0  0  0  0  0  0  0  0  0  0  0
   -2.2104    0.0332    0.8354 C   0  0  0  0  0  0  0  0  0  0  0  0
   -2.1475   -1.4576    1.0826 C   0  0  0  0  0  0  0  0  0  0  0  0
   -0.7933   -1.8827    1.6688 C   0  0  0  0  0  0  0  0  0  0  0  0
    0.3365   -1.6313    0.7041 C   0  0  0  0  0  0  0  0  0  0  0  0
    0.6151   -2.5593   -0.3198 C   0  0  0  0  0  0  0  0  0  0  0  0
    1.6245   -2.2978   -1.2557 C   0  0  0  0  0  0  0  0  0  0  0  0
    2.3478   -1.1079   -1.1623 C   0  0  0  0  0  0  0  0  0  0  0  0
    3.6368   -0.6275   -2.2869 S   0  0  0  0  0  0  0  0  0  0  0  0
    3.4906    1.0880   -1.6589 C   0  0  0  0  0  0  0  0  0  0  0  0
    2.8652    1.0646   -0.2583 C   0  0  0  0  0  0  0  0  0  0  0  0
    2.0612   -0.1804   -0.1841 C   0  0  0  0  0  0  0  0  0  0  0  0
    1.0681   -0.4298    0.7674 C   0  0  0  0  0  0  0  0  0  0  0  0
   -1.7943    2.3955   -1.6004 H   0  0  0  0  0  0  0  0  0  0  0  0
   -2.2352    3.8913    0.3174 H   0  0  0  0  0  0  0  0  0  0  0  0
   -2.6499    2.9410    2.5669 H   0  0  0  0  0  0  0  0  0  0  0  0
   -2.6228    0.4990    2.9091 H   0  0  0  0  0  0  0  0  0  0  0  0
   -2.9484   -1.7403    1.8001 H   0  0  0  0  0  0  0  0  0  0  0  0
   -2.3508   -2.0287    0.1513 H   0  0  0  0  0  0  0  0  0  0  0  0
   -0.8330   -2.9663    1.9144 H   0  0  0  0  0  0  0  0  0  0  0  0
   -0.6116   -1.3452    2.6255 H   0  0  0  0  0  0  0  0  0  0  0  0
    0.0449   -3.4767   -0.3964 H   0  0  0  0  0  0  0  0  0  0  0  0
    1.8384   -3.0105   -2.0416 H   0  0  0  0  0  0  0  0  0  0  0  0
    4.4903    1.5707   -1.6327 H   0  0  0  0  0  0  0  0  0  0  0  0
    2.8346    1.6587   -2.3509 H   0  0  0  0  0  0  0  0  0  0  0  0
    2.2264    1.9605   -0.1005 H   0  0  0  0  0  0  0  0  0  0  0  0
    3.6612    1.0309    0.5162 H   0  0  0  0  0  0  0  0  0  0  0  0
    0.8480    0.3112    1.5264 H   0  0  0  0  0  0  0  0  0  0  0  0
  1  2  1  0
  2  3  2  0
  3  4  1  0
  4  5  2  0
  5  6  1  0
  6  7  2  0
  7  8  1  0
  8  9  1  0
  9 10  1  0
 10 11  1  0
 11 12  2  0
 12 13  1  0
 13 14  1  0
 14 15  1  0
 15 16  1  0
 16 17  1  0
 17 18  1  0
  7  2  1  0
 17 13  2  0
 18 10  2  0
  3 19  1  0
  4 20  1  0
  5 21  1  0
  6 22  1  0
  8 23  1  0
  8 24  1  0
  9 25  1  0
  9 26  1  0
 11 27  1  0
 12 28  1  0
 15 29  1  0
 15 30  1  0
 16 31  1  0
 16 32  1  0
 18 33  1  0
M  RAD  1   1   3
M  END
$$$$
