
     RDKit          3D

 33 35  0  0  0  0  0  0  0  0999 V2000
   -3.3191   -1.2602   -1.8896 N   0  0  0  0  0  1  0  0  0  0  0  0
   -3.7292   -0.6094   -0.6889 C   0  0  0  0  0  0  0  0  0  0  0  0
   -5.0431   -0.7783   -0.2354 C   0  0  0  0  0  0  0  0  0  0  0  0
   -5.4647   -0.1638    0.9461 C   0  0  0  0  0  0  0  0  0  0  0  0
   -4.5742    0.6191    1.6833 C   0  0  0  0  0  0  0  0  0  0  0  0
   -3.2609    0.7938    1.2385 C   0  0  0  0  0  0  0  0  0  0  0  0
   -2.8280    0.1933    0.0433 C   0  0  0  0  0  0  0  0  0  0  0  0
   -1.3964    0.3690   -0.4001 C   0  0  0  0  0  0  0  0  0  0  0  0
   -0.5212   -0.7655    0.1407 C   0  0  0  0  0  0  0  0  0  0  0  0
    0.9053   -0.5903   -0.3044 C   0  0  0  0  0  0  0  0  0  0  0  0
    1.3405   -1.1409   -1.5272 C   0  0  0  0  0  0  0  0  0  0  0  0
    2.6584   -0.9461   -1.9614 C   0  0  0  0  0  0  0  0  0  0  0  0
    3.5288   -0.1885   -1.1763 C   0  0  0  0  0  0  0  0  0  0  0  0
    5.2205    0.1523   -1.5998 S   0  0  0  0  0  0  0  0  0  0  0  0
    5.5019    0.7033    0.1254 C   0  0  0  0  0  0  0  0  0  0  0  0
    4.1621    1.1007    0.7581 C   0  0  0  0  0  0  0  0  0  0  0  0
    3.1155    0.3454    0.0253 C   0  0  0  0  0  0  0  0  0  0  0  0
    1.8015    0.1698    0.4708 C   0  0  0  0  0  0  0  0  0  0  0  0
   -5.7379   -1.3901   -0.7971 H   0  0  0  0  0  0  0  0  0  0  0  0
   -6.4810   -0.2988    1.2931 H   0  0  0  0  0  0  0  0  0  0  0  0
   -4.9006    1.0886    2.6023 H   0  0  0  0  0  0  0  0  0  0  0  0
   -2.5802    1.3965    1.8272 H   0  0  0  0  0  0  0  0  0  0  0  0
   -1.3406    0.3945   -1.5103 H   0  0  0  0  0  0  0  0  0  0  0  0
   -1.0057    1.3452   -0.0360 H   0  0  0  0  0  0  0  0  0  0  0  0
   -0.5697   -0.7786    1.2521 H   0  0  0  0  0  0  0  0  0  0  0  0
   -0.9088   -1.7444   -0.2183 H   0  0  0  0  0  0  0  0  0  0  0  0
    0.6588   -1.7148   -2.1426 H   0  0  0  0  0  0  0  0  0  0  0  0
    2.9920   -1.3682   -2.9004 H   0  0  0  0  0  0  0  0  0  0  0  0
    5.9468   -0.1417    0.6937 H   0  0  0  0  0  0  0  0  0  0  0  0
    6.2105    1.5580    0.1412 H   0  0  0  0  0  0  0  0  0  0  0  0
    3.9848    2.1897    0.6258 H   0  0  0  0  0  0  0  0  0  0  0  0
    4.1503    0.8486    1.8405 H   0  0  0  0  0  0  0  0  0  0  0  0
    1.4834    0.6117    1.4073 H   0  0  0  0  0  0  0  0  0  0  0  0
  1  2  1  0
  2  3  2  0
  3  4  1  0
  4  5  2  0
  5  6  1  0
  6  7  2  0
  7  8  1  0
  8  9  1  0
  9 10  1  0
 10 11  1  0
 11 12  2  0
 12 13  1  0
 13 14  1  0
 14 15  1  0
 15 16  1  0
 16 17  1  0
 17 18  1  0
  7  2  1  0
 17 13  2  0
 18 10  2  0
  3 19  1  0
  4 20  1  0
  5 21  1  0
  6 22  1  0
  8 23  1  0
  8 24  1  0
  9 25  1  0
  9 26  1  0
 11 27  1  0
 12 28  1  0
 15 29  1  0
 15 30  1  0
 16 31  1  0
 16 32  1  0
 18 33  1  0
M  RAD  1   1   3
M  END
$$$$
