
     RDKit          3D

 33 35  0  0  0  0  0  0  0  0999 V2000
   -3.2988   -2.2684   -0.4242 N   0  0  0  0  0  1  0  0  0  0  0  0
   -3.7218   -0.9425   -0.1133 C   0  0  0  0  0  0  0  0  0  0  0  0
   -5.0687   -0.5987   -0.2814 C   0  0  0  0  0  0  0  0  0  0  0  0
   -5.5052    0.6977    0.0016 C   0  0  0  0  0  0  0  0  0  0  0  0
   -4.5970    1.6589    0.4497 C   0  0  0  0  0  0  0  0  0  0  0  0
   -3.2508    1.3252    0.6208 C   0  0  0  0  0  0  0  0  0  0  0  0
   -2.8012    0.0200    0.3542 C   0  0  0  0  0  0  0  0  0  0  0  0
   -1.3373   -0.3085    0.5147 C   0  0  0  0  0  0  0  0  0  0  0  0
   -0.5894   -0.0982   -0.8052 C   0  0  0  0  0  0  0  0  0  0  0  0
    0.8696   -0.4287   -0.6441 C   0  0  0  0  0  0  0  0  0  0  0  0
    1.3271   -1.7454   -0.8556 C   0  0  0  0  0  0  0  0  0  0  0  0
    2.6790   -2.0630   -0.6688 C   0  0  0  0  0  0  0  0  0  0  0  0
    3.5622   -1.0641   -0.2567 C   0  0  0  0  0  0  0  0  0  0  0  0
    5.2973   -1.3173    0.0307 S   0  0  0  0  0  0  0  0  0  0  0  0
    5.5244    0.5014    0.0294 C   0  0  0  0  0  0  0  0  0  0  0  0
    4.1877    1.1819    0.3513 C   0  0  0  0  0  0  0  0  0  0  0  0
    3.1264    0.2282   -0.0571 C   0  0  0  0  0  0  0  0  0  0  0  0
    1.7793    0.5623   -0.2293 C   0  0  0  0  0  0  0  0  0  0  0  0
   -5.7781   -1.3361   -0.6359 H   0  0  0  0  0  0  0  0  0  0  0  0
   -6.5471    0.9587   -0.1315 H   0  0  0  0  0  0  0  0  0  0  0  0
   -4.9357    2.6648    0.6616 H   0  0  0  0  0  0  0  0  0  0  0  0
   -2.5577    2.0852    0.9602 H   0  0  0  0  0  0  0  0  0  0  0  0
   -0.8896    0.3378    1.3021 H   0  0  0  0  0  0  0  0  0  0  0  0
   -1.2167   -1.3601    0.8552 H   0  0  0  0  0  0  0  0  0  0  0  0
   -1.0344   -0.7403   -1.5970 H   0  0  0  0  0  0  0  0  0  0  0  0
   -0.7017    0.9584   -1.1350 H   0  0  0  0  0  0  0  0  0  0  0  0
    0.6369   -2.5226   -1.1597 H   0  0  0  0  0  0  0  0  0  0  0  0
    3.0298   -3.0740   -0.8305 H   0  0  0  0  0  0  0  0  0  0  0  0
    6.2982    0.7890    0.7721 H   0  0  0  0  0  0  0  0  0  0  0  0
    5.8661    0.8099   -0.9819 H   0  0  0  0  0  0  0  0  0  0  0  0
    4.1075    1.3697    1.4436 H   0  0  0  0  0  0  0  0  0  0  0  0
    4.0941    2.1417   -0.2011 H   0  0  0  0  0  0  0  0  0  0  0  0
    1.4456    1.5771   -0.0495 H   0  0  0  0  0  0  0  0  0  0  0  0
  1  2  1  0
  2  3  2  0
  3  4  1  0
  4  5  2  0
  5  6  1  0
  6  7  2  0
  7  8  1  0
  8  9  1  0
  9 10  1  0
 10 11  1  0
 11 12  2  0
 12 13  1  0
 13 14  1  0
 14 15  1  0
 15 16  1  0
 16 17  1  0
 17 18  1  0
  7  2  1  0
 17 13  2  0
 18 10  2  0
  3 19  1  0
  4 20  1  0
  5 21  1  0
  6 22  1  0
  8 23  1  0
  8 24  1  0
  9 25  1  0
  9 26  1  0
 11 27  1  0
 12 28  1  0
 15 29  1  0
 15 30  1  0
 16 31  1  0
 16 32  1  0
 18 33  1  0
M  RAD  1   1   3
M  END
$$$$
