
     RDKit          3D

 33 35  0  0  0  0  0  0  0  0999 V2000
   -1.3100    1.0510   -1.9155 N   0  0  0  0  0  1  0  0  0  0  0  0
   -1.9156    0.8197   -0.6454 C   0  0  0  0  0  0  0  0  0  0  0  0
   -2.1625    1.9092    0.1982 C   0  0  0  0  0  0  0  0  0  0  0  0
   -2.7415    1.7113    1.4537 C   0  0  0  0  0  0  0  0  0  0  0  0
   -3.0753    0.4227    1.8741 C   0  0  0  0  0  0  0  0  0  0  0  0
   -2.8311   -0.6717    1.0405 C   0  0  0  0  0  0  0  0  0  0  0  0
   -2.2551   -0.4869   -0.2285 C   0  0  0  0  0  0  0  0  0  0  0  0
   -1.9510   -1.6964   -1.0842 C   0  0  0  0  0  0  0  0  0  0  0  0
   -0.6559   -2.3954   -0.6455 C   0  0  0  0  0  0  0  0  0  0  0  0
    0.5485   -1.5100   -0.8353 C   0  0  0  0  0  0  0  0  0  0  0  0
    1.1634   -1.4099   -2.0998 C   0  0  0  0  0  0  0  0  0  0  0  0
    2.2445   -0.5399   -2.2936 C   0  0  0  0  0  0  0  0  0  0  0  0
    2.7025    0.2261   -1.2206 C   0  0  0  0  0  0  0  0  0  0  0  0
    4.0437    1.3875   -1.3186 S   0  0  0  0  0  0  0  0  0  0  0  0
    3.4721    2.1200    0.2612 C   0  0  0  0  0  0  0  0  0  0  0  0
    2.6407    1.0849    1.0296 C   0  0  0  0  0  0  0  0  0  0  0  0
    2.0875    0.1585    0.0108 C   0  0  0  0  0  0  0  0  0  0  0  0
    1.0173   -0.7141    0.2275 C   0  0  0  0  0  0  0  0  0  0  0  0
   -1.9014    2.9115   -0.1177 H   0  0  0  0  0  0  0  0  0  0  0  0
   -2.9286    2.5572    2.1024 H   0  0  0  0  0  0  0  0  0  0  0  0
   -3.5192    0.2707    2.8495 H   0  0  0  0  0  0  0  0  0  0  0  0
   -3.0843   -1.6662    1.3866 H   0  0  0  0  0  0  0  0  0  0  0  0
   -2.7903   -2.4207   -0.9997 H   0  0  0  0  0  0  0  0  0  0  0  0
   -1.8856   -1.4226   -2.1592 H   0  0  0  0  0  0  0  0  0  0  0  0
   -0.7398   -2.7111    0.4178 H   0  0  0  0  0  0  0  0  0  0  0  0
   -0.5283   -3.3232   -1.2445 H   0  0  0  0  0  0  0  0  0  0  0  0
    0.7988   -1.9974   -2.9332 H   0  0  0  0  0  0  0  0  0  0  0  0
    2.7166   -0.4634   -3.2644 H   0  0  0  0  0  0  0  0  0  0  0  0
    2.8424    3.0055    0.0282 H   0  0  0  0  0  0  0  0  0  0  0  0
    4.3433    2.4487    0.8660 H   0  0  0  0  0  0  0  0  0  0  0  0
    1.8259    1.5824    1.5988 H   0  0  0  0  0  0  0  0  0  0  0  0
    3.2901    0.5134    1.7271 H   0  0  0  0  0  0  0  0  0  0  0  0
    0.5382   -0.7517    1.1984 H   0  0  0  0  0  0  0  0  0  0  0  0
  1  2  1  0
  2  3  2  0
  3  4  1  0
  4  5  2  0
  5  6  1  0
  6  7  2  0
  7  8  1  0
  8  9  1  0
  9 10  1  0
 10 11  1  0
 11 12  2  0
 12 13  1  0
 13 14  1  0
 14 15  1  0
 15 16  1  0
 16 17  1  0
 17 18  1  0
  7  2  1  0
 17 13  2  0
 18 10  2  0
  3 19  1  0
  4 20  1  0
  5 21  1  0
  6 22  1  0
  8 23  1  0
  8 24  1  0
  9 25  1  0
  9 26  1  0
 11 27  1  0
 12 28  1  0
 15 29  1  0
 15 30  1  0
 16 31  1  0
 16 32  1  0
 18 33  1  0
M  RAD  1   1   3
M  END
$$$$
