
     RDKit          3D

 28 29  0  0  0  0  0  0  0  0999 V2000
   -2.6364   -0.3896   -2.4068 N   0  0  0  0  0  1  0  0  0  0  0  0
   -2.4506    0.0389   -1.0596 C   0  0  0  0  0  0  0  0  0  0  0  0
   -3.1766    1.1387   -0.5867 C   0  0  0  0  0  0  0  0  0  0  0  0
   -3.0040    1.5849    0.7257 C   0  0  0  0  0  0  0  0  0  0  0  0
   -2.1043    0.9349    1.5724 C   0  0  0  0  0  0  0  0  0  0  0  0
   -1.3768   -0.1648    1.1103 C   0  0  0  0  0  0  0  0  0  0  0  0
   -1.5456   -0.6284   -0.2067 C   0  0  0  0  0  0  0  0  0  0  0  0
   -0.7126   -1.7890   -0.7006 C   0  0  0  0  0  0  0  0  0  0  0  0
    0.5221   -1.3160   -1.4811 C   0  0  0  0  0  0  0  0  0  0  0  0
    1.4719   -0.5369   -0.6072 C   0  0  0  0  0  0  0  0  0  0  0  0
    2.3593   -1.2102    0.2485 C   0  0  0  0  0  0  0  0  0  0  0  0
    3.2084   -0.4876    1.0922 C   0  0  0  0  0  0  0  0  0  0  0  0
    3.1724    0.9095    1.0934 C   0  0  0  0  0  0  0  0  0  0  0  0
    2.2856    1.5871    0.2515 C   0  0  0  0  0  0  0  0  0  0  0  0
    2.2449    2.9422    0.2602 F   0  0  0  0  0  0  0  0  0  0  0  0
    1.4361    0.8680   -0.5952 C   0  0  0  0  0  0  0  0  0  0  0  0
   -3.8730    1.6515   -1.2384 H   0  0  0  0  0  0  0  0  0  0  0  0
   -3.5657    2.4373    1.0854 H   0  0  0  0  0  0  0  0  0  0  0  0
   -1.9671    1.2858    2.5870 H   0  0  0  0  0  0  0  0  0  0  0  0
   -0.6734   -0.6491    1.7764 H   0  0  0  0  0  0  0  0  0  0  0  0
   -1.3300   -2.4373   -1.3589 H   0  0  0  0  0  0  0  0  0  0  0  0
   -0.3917   -2.4273    0.1522 H   0  0  0  0  0  0  0  0  0  0  0  0
    1.0486   -2.2053   -1.8911 H   0  0  0  0  0  0  0  0  0  0  0  0
    0.2058   -0.7033   -2.3534 H   0  0  0  0  0  0  0  0  0  0  0  0
    2.3887   -2.2927    0.2651 H   0  0  0  0  0  0  0  0  0  0  0  0
    3.8914   -1.0110    1.7488 H   0  0  0  0  0  0  0  0  0  0  0  0
    3.8289    1.4659    1.7498 H   0  0  0  0  0  0  0  0  0  0  0  0
    0.7437    1.4036   -1.2331 H   0  0  0  0  0  0  0  0  0  0  0  0
  1  2  1  0
  2  3  2  0
  3  4  1  0
  4  5  2  0
  5  6  1  0
  6  7  2  0
  7  8  1  0
  8  9  1  0
  9 10  1  0
 10 11  2  0
 11 12  1  0
 12 13  2  0
 13 14  1  0
 14 15  1  0
 14 16  2  0
  7  2  1  0
 16 10  1  0
  3 17  1  0
  4 18  1  0
  5 19  1  0
  6 20  1  0
  8 21  1  0
  8 22  1  0
  9 23  1  0
  9 24  1  0
 11 25  1  0
 12 26  1  0
 13 27  1  0
 16 28  1  0
M  RAD  1   1   3
M  END
$$$$
