
     RDKit          3D

 28 29  0  0  0  0  0  0  0  0999 V2000
   -2.4000   -1.9922   -1.7795 N   0  0  0  0  0  1  0  0  0  0  0  0
   -2.3367   -1.1107   -0.6605 C   0  0  0  0  0  0  0  0  0  0  0  0
   -3.0849   -1.4070    0.4852 C   0  0  0  0  0  0  0  0  0  0  0  0
   -3.0311   -0.5653    1.5987 C   0  0  0  0  0  0  0  0  0  0  0  0
   -2.2284    0.5767    1.5736 C   0  0  0  0  0  0  0  0  0  0  0  0
   -1.4797    0.8818    0.4341 C   0  0  0  0  0  0  0  0  0  0  0  0
   -1.5296    0.0465   -0.6961 C   0  0  0  0  0  0  0  0  0  0  0  0
   -0.6738    0.3693   -1.8996 C   0  0  0  0  0  0  0  0  0  0  0  0
    0.6382   -0.4281   -1.8994 C   0  0  0  0  0  0  0  0  0  0  0  0
    1.5135   -0.0647   -0.7269 C   0  0  0  0  0  0  0  0  0  0  0  0
    2.3027    1.0966   -0.7667 C   0  0  0  0  0  0  0  0  0  0  0  0
    3.0797    1.4580    0.3381 C   0  0  0  0  0  0  0  0  0  0  0  0
    3.0686    0.6684    1.4912 C   0  0  0  0  0  0  0  0  0  0  0  0
    2.2789   -0.4840    1.5423 C   0  0  0  0  0  0  0  0  0  0  0  0
    2.2617   -1.2442    2.6648 F   0  0  0  0  0  0  0  0  0  0  0  0
    1.5018   -0.8499    0.4387 C   0  0  0  0  0  0  0  0  0  0  0  0
   -3.7064   -2.2933    0.5147 H   0  0  0  0  0  0  0  0  0  0  0  0
   -3.6094   -0.8003    2.4829 H   0  0  0  0  0  0  0  0  0  0  0  0
   -2.1829    1.2244    2.4396 H   0  0  0  0  0  0  0  0  0  0  0  0
   -0.8521    1.7646    0.4366 H   0  0  0  0  0  0  0  0  0  0  0  0
   -0.4477    1.4580   -1.9345 H   0  0  0  0  0  0  0  0  0  0  0  0
   -1.2367    0.1389   -2.8297 H   0  0  0  0  0  0  0  0  0  0  0  0
    0.4180   -1.5180   -1.8964 H   0  0  0  0  0  0  0  0  0  0  0  0
    1.1857   -0.2167   -2.8436 H   0  0  0  0  0  0  0  0  0  0  0  0
    2.3110    1.7229   -1.6502 H   0  0  0  0  0  0  0  0  0  0  0  0
    3.6872    2.3531    0.3020 H   0  0  0  0  0  0  0  0  0  0  0  0
    3.6690    0.9524    2.3458 H   0  0  0  0  0  0  0  0  0  0  0  0
    0.8834   -1.7373    0.4949 H   0  0  0  0  0  0  0  0  0  0  0  0
  1  2  1  0
  2  3  2  0
  3  4  1  0
  4  5  2  0
  5  6  1  0
  6  7  2  0
  7  8  1  0
  8  9  1  0
  9 10  1  0
 10 11  2  0
 11 12  1  0
 12 13  2  0
 13 14  1  0
 14 15  1  0
 14 16  2  0
  7  2  1  0
 16 10  1  0
  3 17  1  0
  4 18  1  0
  5 19  1  0
  6 20  1  0
  8 21  1  0
  8 22  1  0
  9 23  1  0
  9 24  1  0
 11 25  1  0
 12 26  1  0
 13 27  1  0
 16 28  1  0
M  RAD  1   1   3
M  END
$$$$
