
     RDKit          3D

 28 29  0  0  0  0  0  0  0  0999 V2000
    1.8131    0.2888    2.6463 N   0  0  0  0  0  1  0  0  0  0  0  0
    2.5082    0.4449    1.4109 C   0  0  0  0  0  0  0  0  0  0  0  0
    3.9068    0.3783    1.4016 C   0  0  0  0  0  0  0  0  0  0  0  0
    4.6102    0.5128    0.2023 C   0  0  0  0  0  0  0  0  0  0  0  0
    3.9194    0.7098   -0.9950 C   0  0  0  0  0  0  0  0  0  0  0  0
    2.5236    0.7778   -0.9957 C   0  0  0  0  0  0  0  0  0  0  0  0
    1.8042    0.6592    0.2064 C   0  0  0  0  0  0  0  0  0  0  0  0
    0.2962    0.7031    0.1769 C   0  0  0  0  0  0  0  0  0  0  0  0
   -0.2819   -0.7083    0.0362 C   0  0  0  0  0  0  0  0  0  0  0  0
   -1.7860   -0.6638    0.0107 C   0  0  0  0  0  0  0  0  0  0  0  0
   -2.5168   -0.7215    1.2092 C   0  0  0  0  0  0  0  0  0  0  0  0
   -3.9129   -0.6469    1.1868 C   0  0  0  0  0  0  0  0  0  0  0  0
   -4.5876   -0.5046   -0.0289 C   0  0  0  0  0  0  0  0  0  0  0  0
   -3.8669   -0.4323   -1.2247 C   0  0  0  0  0  0  0  0  0  0  0  0
   -4.5221   -0.2856   -2.4026 F   0  0  0  0  0  0  0  0  0  0  0  0
   -2.4702   -0.5065   -1.2063 C   0  0  0  0  0  0  0  0  0  0  0  0
    4.4498    0.2181    2.3247 H   0  0  0  0  0  0  0  0  0  0  0  0
    5.6912    0.4591    0.2003 H   0  0  0  0  0  0  0  0  0  0  0  0
    4.4658    0.8065   -1.9243 H   0  0  0  0  0  0  0  0  0  0  0  0
    2.0027    0.9216   -1.9344 H   0  0  0  0  0  0  0  0  0  0  0  0
   -0.0465    1.3313   -0.6752 H   0  0  0  0  0  0  0  0  0  0  0  0
   -0.0903    1.1803    1.1038 H   0  0  0  0  0  0  0  0  0  0  0  0
    0.0968   -1.1763   -0.8994 H   0  0  0  0  0  0  0  0  0  0  0  0
    0.0604   -1.3419    0.8840 H   0  0  0  0  0  0  0  0  0  0  0  0
   -2.0055   -0.8222    2.1587 H   0  0  0  0  0  0  0  0  0  0  0  0
   -4.4718   -0.6959    2.1124 H   0  0  0  0  0  0  0  0  0  0  0  0
   -5.6683   -0.4458   -0.0429 H   0  0  0  0  0  0  0  0  0  0  0  0
   -1.9214   -0.4400   -2.1377 H   0  0  0  0  0  0  0  0  0  0  0  0
  1  2  1  0
  2  3  2  0
  3  4  1  0
  4  5  2  0
  5  6  1  0
  6  7  2  0
  7  8  1  0
  8  9  1  0
  9 10  1  0
 10 11  2  0
 11 12  1  0
 12 13  2  0
 13 14  1  0
 14 15  1  0
 14 16  2  0
  7  2  1  0
 16 10  1  0
  3 17  1  0
  4 18  1  0
  5 19  1  0
  6 20  1  0
  8 21  1  0
  8 22  1  0
  9 23  1  0
  9 24  1  0
 11 25  1  0
 12 26  1  0
 13 27  1  0
 16 28  1  0
M  RAD  1   1   3
M  END
$$$$
