
     RDKit          3D

 28 29  0  0  0  0  0  0  0  0999 V2000
   -2.0057   -2.3829   -0.3139 N   0  0  0  0  0  1  0  0  0  0  0  0
   -2.6311   -1.1208   -0.0910 C   0  0  0  0  0  0  0  0  0  0  0  0
   -3.9929   -0.9732   -0.3814 C   0  0  0  0  0  0  0  0  0  0  0  0
   -4.6252    0.2571   -0.1862 C   0  0  0  0  0  0  0  0  0  0  0  0
   -3.8988    1.3477    0.2957 C   0  0  0  0  0  0  0  0  0  0  0  0
   -2.5393    1.2100    0.5886 C   0  0  0  0  0  0  0  0  0  0  0  0
   -1.8943   -0.0266    0.4111 C   0  0  0  0  0  0  0  0  0  0  0  0
   -0.4184   -0.1430    0.7028 C   0  0  0  0  0  0  0  0  0  0  0  0
    0.4044    0.1324   -0.5593 C   0  0  0  0  0  0  0  0  0  0  0  0
    1.8761    0.0123   -0.2683 C   0  0  0  0  0  0  0  0  0  0  0  0
    2.5219   -1.2300   -0.3839 C   0  0  0  0  0  0  0  0  0  0  0  0
    3.8821   -1.3472   -0.0814 C   0  0  0  0  0  0  0  0  0  0  0  0
    4.6034   -0.2295    0.3474 C   0  0  0  0  0  0  0  0  0  0  0  0
    3.9647    1.0072    0.4785 C   0  0  0  0  0  0  0  0  0  0  0  0
    4.6636    2.0888    0.9027 F   0  0  0  0  0  0  0  0  0  0  0  0
    2.6042    1.1284    0.1768 C   0  0  0  0  0  0  0  0  0  0  0  0
   -4.5617   -1.8120   -0.7628 H   0  0  0  0  0  0  0  0  0  0  0  0
   -5.6777    0.3664   -0.4136 H   0  0  0  0  0  0  0  0  0  0  0  0
   -4.3887    2.3021    0.4394 H   0  0  0  0  0  0  0  0  0  0  0  0
   -1.9883    2.0685    0.9527 H   0  0  0  0  0  0  0  0  0  0  0  0
   -0.1850   -1.1576    1.0934 H   0  0  0  0  0  0  0  0  0  0  0  0
   -0.1325    0.5812    1.4977 H   0  0  0  0  0  0  0  0  0  0  0  0
    0.1777    1.1535   -0.9385 H   0  0  0  0  0  0  0  0  0  0  0  0
    0.1202   -0.5869   -1.3588 H   0  0  0  0  0  0  0  0  0  0  0  0
    1.9721   -2.1058   -0.7061 H   0  0  0  0  0  0  0  0  0  0  0  0
    4.3762   -2.3055   -0.1760 H   0  0  0  0  0  0  0  0  0  0  0  0
    5.6559   -0.3237    0.5820 H   0  0  0  0  0  0  0  0  0  0  0  0
    2.1172    2.0891    0.2910 H   0  0  0  0  0  0  0  0  0  0  0  0
  1  2  1  0
  2  3  2  0
  3  4  1  0
  4  5  2  0
  5  6  1  0
  6  7  2  0
  7  8  1  0
  8  9  1  0
  9 10  1  0
 10 11  2  0
 11 12  1  0
 12 13  2  0
 13 14  1  0
 14 15  1  0
 14 16  2  0
  7  2  1  0
 16 10  1  0
  3 17  1  0
  4 18  1  0
  5 19  1  0
  6 20  1  0
  8 21  1  0
  8 22  1  0
  9 23  1  0
  9 24  1  0
 11 25  1  0
 12 26  1  0
 13 27  1  0
 16 28  1  0
M  RAD  1   1   3
M  END
$$$$
