
     RDKit          3D

 28 29  0  0  0  0  0  0  0  0999 V2000
   -1.9781    2.3038   -0.8832 N   0  0  0  0  0  1  0  0  0  0  0  0
   -2.6042    1.1802   -0.2675 C   0  0  0  0  0  0  0  0  0  0  0  0
   -3.9938    1.0364   -0.3621 C   0  0  0  0  0  0  0  0  0  0  0  0
   -4.6291   -0.0634    0.2192 C   0  0  0  0  0  0  0  0  0  0  0  0
   -3.8787   -1.0280    0.8943 C   0  0  0  0  0  0  0  0  0  0  0  0
   -2.4913   -0.8931    0.9943 C   0  0  0  0  0  0  0  0  0  0  0  0
   -1.8411    0.2168    0.4268 C   0  0  0  0  0  0  0  0  0  0  0  0
   -0.3388    0.3246    0.5189 C   0  0  0  0  0  0  0  0  0  0  0  0
    0.3241   -0.3161   -0.7042 C   0  0  0  0  0  0  0  0  0  0  0  0
    1.8222   -0.2046   -0.6132 C   0  0  0  0  0  0  0  0  0  0  0  0
    2.4806    0.9269   -1.1231 C   0  0  0  0  0  0  0  0  0  0  0  0
    3.8692    1.0445   -1.0085 C   0  0  0  0  0  0  0  0  0  0  0  0
    4.6078    0.0402   -0.3766 C   0  0  0  0  0  0  0  0  0  0  0  0
    3.9585   -1.0822    0.1458 C   0  0  0  0  0  0  0  0  0  0  0  0
    4.6751   -2.0517    0.7660 F   0  0  0  0  0  0  0  0  0  0  0  0
    2.5695   -1.2035    0.0332 C   0  0  0  0  0  0  0  0  0  0  0  0
   -4.5823    1.7760   -0.8905 H   0  0  0  0  0  0  0  0  0  0  0  0
   -5.7034   -0.1707    0.1420 H   0  0  0  0  0  0  0  0  0  0  0  0
   -4.3719   -1.8833    1.3379 H   0  0  0  0  0  0  0  0  0  0  0  0
   -1.9230   -1.6552    1.5132 H   0  0  0  0  0  0  0  0  0  0  0  0
   -0.0365    1.3917    0.5984 H   0  0  0  0  0  0  0  0  0  0  0  0
    0.0199   -0.1809    1.4430 H   0  0  0  0  0  0  0  0  0  0  0  0
    0.0296   -1.3868   -0.7716 H   0  0  0  0  0  0  0  0  0  0  0  0
   -0.0336    0.1835   -1.6315 H   0  0  0  0  0  0  0  0  0  0  0  0
    1.9187    1.7166   -1.6065 H   0  0  0  0  0  0  0  0  0  0  0  0
    4.3725    1.9162   -1.4065 H   0  0  0  0  0  0  0  0  0  0  0  0
    5.6825    0.1349   -0.2884 H   0  0  0  0  0  0  0  0  0  0  0  0
    2.0756   -2.0728    0.4498 H   0  0  0  0  0  0  0  0  0  0  0  0
  1  2  1  0
  2  3  2  0
  3  4  1  0
  4  5  2  0
  5  6  1  0
  6  7  2  0
  7  8  1  0
  8  9  1  0
  9 10  1  0
 10 11  2  0
 11 12  1  0
 12 13  2  0
 13 14  1  0
 14 15  1  0
 14 16  2  0
  7  2  1  0
 16 10  1  0
  3 17  1  0
  4 18  1  0
  5 19  1  0
  6 20  1  0
  8 21  1  0
  8 22  1  0
  9 23  1  0
  9 24  1  0
 11 25  1  0
 12 26  1  0
 13 27  1  0
 16 28  1  0
M  RAD  1   1   3
M  END
$$$$
