
     RDKit          3D

 28 29  0  0  0  0  0  0  0  0999 V2000
   -1.9801    1.4049   -1.9886 N   0  0  0  0  0  1  0  0  0  0  0  0
   -2.6165    0.5945   -1.0027 C   0  0  0  0  0  0  0  0  0  0  0  0
   -3.9921    0.7388   -0.7847 C   0  0  0  0  0  0  0  0  0  0  0  0
   -4.6359   -0.0324    0.1858 C   0  0  0  0  0  0  0  0  0  0  0  0
   -3.9077   -0.9487    0.9470 C   0  0  0  0  0  0  0  0  0  0  0  0
   -2.5344   -1.1000    0.7365 C   0  0  0  0  0  0  0  0  0  0  0  0
   -1.8770   -0.3410   -0.2474 C   0  0  0  0  0  0  0  0  0  0  0  0
   -0.3879   -0.4977   -0.4345 C   0  0  0  0  0  0  0  0  0  0  0  0
    0.3737    0.5105    0.4312 C   0  0  0  0  0  0  0  0  0  0  0  0
    1.8586    0.3559    0.2410 C   0  0  0  0  0  0  0  0  0  0  0  0
    2.5197    1.0632   -0.7770 C   0  0  0  0  0  0  0  0  0  0  0  0
    3.8937    0.8937   -0.9739 C   0  0  0  0  0  0  0  0  0  0  0  0
    4.6141    0.0114   -0.1640 C   0  0  0  0  0  0  0  0  0  0  0  0
    3.9609   -0.7067    0.8420 C   0  0  0  0  0  0  0  0  0  0  0  0
    4.6593   -1.5686    1.6215 F   0  0  0  0  0  0  0  0  0  0  0  0
    2.5865   -0.5398    1.0421 C   0  0  0  0  0  0  0  0  0  0  0  0
   -4.5628    1.4527   -1.3654 H   0  0  0  0  0  0  0  0  0  0  0  0
   -5.6992    0.0840    0.3515 H   0  0  0  0  0  0  0  0  0  0  0  0
   -4.4070   -1.5402    1.7036 H   0  0  0  0  0  0  0  0  0  0  0  0
   -1.9826   -1.8085    1.3421 H   0  0  0  0  0  0  0  0  0  0  0  0
   -0.1203   -0.3568   -1.5045 H   0  0  0  0  0  0  0  0  0  0  0  0
   -0.0796   -1.5308   -0.1593 H   0  0  0  0  0  0  0  0  0  0  0  0
    0.0668    1.5454    0.1626 H   0  0  0  0  0  0  0  0  0  0  0  0
    0.1131    0.3565    1.5018 H   0  0  0  0  0  0  0  0  0  0  0  0
    1.9712    1.7428   -1.4175 H   0  0  0  0  0  0  0  0  0  0  0  0
    4.3994    1.4439   -1.7568 H   0  0  0  0  0  0  0  0  0  0  0  0
    5.6773   -0.1186   -0.3198 H   0  0  0  0  0  0  0  0  0  0  0  0
    2.0888   -1.1082    1.8182 H   0  0  0  0  0  0  0  0  0  0  0  0
  1  2  1  0
  2  3  2  0
  3  4  1  0
  4  5  2  0
  5  6  1  0
  6  7  2  0
  7  8  1  0
  8  9  1  0
  9 10  1  0
 10 11  2  0
 11 12  1  0
 12 13  2  0
 13 14  1  0
 14 15  1  0
 14 16  2  0
  7  2  1  0
 16 10  1  0
  3 17  1  0
  4 18  1  0
  5 19  1  0
  6 20  1  0
  8 21  1  0
  8 22  1  0
  9 23  1  0
  9 24  1  0
 11 25  1  0
 12 26  1  0
 13 27  1  0
 16 28  1  0
M  RAD  1   1   3
M  END
$$$$
