
     RDKit          3D

 28 29  0  0  0  0  0  0  0  0999 V2000
   -2.9774   -1.6456    1.1404 N   0  0  0  0  0  1  0  0  0  0  0  0
   -2.5909   -0.4676    0.4360 C   0  0  0  0  0  0  0  0  0  0  0  0
   -3.2746    0.7295    0.6807 C   0  0  0  0  0  0  0  0  0  0  0  0
   -2.9076    1.8995    0.0117 C   0  0  0  0  0  0  0  0  0  0  0  0
   -1.8546    1.8799   -0.9047 C   0  0  0  0  0  0  0  0  0  0  0  0
   -1.1676    0.6897   -1.1569 C   0  0  0  0  0  0  0  0  0  0  0  0
   -1.5310   -0.4969   -0.4952 C   0  0  0  0  0  0  0  0  0  0  0  0
   -0.7425   -1.7618   -0.7470 C   0  0  0  0  0  0  0  0  0  0  0  0
    0.3263   -1.9940    0.3305 C   0  0  0  0  0  0  0  0  0  0  0  0
    1.3733   -0.9093    0.3230 C   0  0  0  0  0  0  0  0  0  0  0  0
    2.4166   -0.9401   -0.6170 C   0  0  0  0  0  0  0  0  0  0  0  0
    3.3619    0.0896   -0.6536 C   0  0  0  0  0  0  0  0  0  0  0  0
    3.2680    1.1592    0.2411 C   0  0  0  0  0  0  0  0  0  0  0  0
    2.2275    1.2020    1.1736 C   0  0  0  0  0  0  0  0  0  0  0  0
    2.1321    2.2448    2.0348 F   0  0  0  0  0  0  0  0  0  0  0  0
    1.2812    0.1732    1.2146 C   0  0  0  0  0  0  0  0  0  0  0  0
   -4.0895    0.7544    1.3934 H   0  0  0  0  0  0  0  0  0  0  0  0
   -3.4377    2.8228    0.2065 H   0  0  0  0  0  0  0  0  0  0  0  0
   -1.5673    2.7888   -1.4173 H   0  0  0  0  0  0  0  0  0  0  0  0
   -0.3446    0.6952   -1.8611 H   0  0  0  0  0  0  0  0  0  0  0  0
   -0.2595   -1.7254   -1.7485 H   0  0  0  0  0  0  0  0  0  0  0  0
   -1.4321   -2.6330   -0.7660 H   0  0  0  0  0  0  0  0  0  0  0  0
    0.8149   -2.9751    0.1443 H   0  0  0  0  0  0  0  0  0  0  0  0
   -0.1544   -2.0628    1.3309 H   0  0  0  0  0  0  0  0  0  0  0  0
    2.4935   -1.7577   -1.3230 H   0  0  0  0  0  0  0  0  0  0  0  0
    4.1647    0.0606   -1.3788 H   0  0  0  0  0  0  0  0  0  0  0  0
    3.9997    1.9561    0.2082 H   0  0  0  0  0  0  0  0  0  0  0  0
    0.4716    0.2240    1.9324 H   0  0  0  0  0  0  0  0  0  0  0  0
  1  2  1  0
  2  3  2  0
  3  4  1  0
  4  5  2  0
  5  6  1  0
  6  7  2  0
  7  8  1  0
  8  9  1  0
  9 10  1  0
 10 11  2  0
 11 12  1  0
 12 13  2  0
 13 14  1  0
 14 15  1  0
 14 16  2  0
  7  2  1  0
 16 10  1  0
  3 17  1  0
  4 18  1  0
  5 19  1  0
  6 20  1  0
  8 21  1  0
  8 22  1  0
  9 23  1  0
  9 24  1  0
 11 25  1  0
 12 26  1  0
 13 27  1  0
 16 28  1  0
M  RAD  1   1   3
M  END
$$$$
