
     RDKit          3D

 28 29  0  0  0  0  0  0  0  0999 V2000
    2.4890   -2.3707   -1.0391 N   0  0  0  0  0  1  0  0  0  0  0  0
    2.3861   -1.1634   -0.2873 C   0  0  0  0  0  0  0  0  0  0  0  0
    3.1515   -1.0161    0.8757 C   0  0  0  0  0  0  0  0  0  0  0  0
    3.0601    0.1524    1.6356 C   0  0  0  0  0  0  0  0  0  0  0  0
    2.2024    1.1796    1.2379 C   0  0  0  0  0  0  0  0  0  0  0  0
    1.4361    1.0426    0.0777 C   0  0  0  0  0  0  0  0  0  0  0  0
    1.5233   -0.1257   -0.7001 C   0  0  0  0  0  0  0  0  0  0  0  0
    0.6490   -0.2727   -1.9244 C   0  0  0  0  0  0  0  0  0  0  0  0
   -0.6225   -1.0801   -1.6261 C   0  0  0  0  0  0  0  0  0  0  0  0
   -1.5108   -0.3774   -0.6312 C   0  0  0  0  0  0  0  0  0  0  0  0
   -2.3560    0.6637   -1.0496 C   0  0  0  0  0  0  0  0  0  0  0  0
   -3.1463    1.3458   -0.1195 C   0  0  0  0  0  0  0  0  0  0  0  0
   -3.0929    0.9994    1.2335 C   0  0  0  0  0  0  0  0  0  0  0  0
   -2.2476   -0.0292    1.6594 C   0  0  0  0  0  0  0  0  0  0  0  0
   -2.1897   -0.3581    2.9734 F   0  0  0  0  0  0  0  0  0  0  0  0
   -1.4570   -0.7151    0.7320 C   0  0  0  0  0  0  0  0  0  0  0  0
    3.8157   -1.8100    1.1938 H   0  0  0  0  0  0  0  0  0  0  0  0
    3.6520    0.2601    2.5354 H   0  0  0  0  0  0  0  0  0  0  0  0
    2.1280    2.0817    1.8314 H   0  0  0  0  0  0  0  0  0  0  0  0
    0.7661    1.8439   -0.2091 H   0  0  0  0  0  0  0  0  0  0  0  0
    0.3697    0.7270   -2.3245 H   0  0  0  0  0  0  0  0  0  0  0  0
    1.2196   -0.7818   -2.7308 H   0  0  0  0  0  0  0  0  0  0  0  0
   -0.3491   -2.0922   -1.2555 H   0  0  0  0  0  0  0  0  0  0  0  0
   -1.1825   -1.2292   -2.5748 H   0  0  0  0  0  0  0  0  0  0  0  0
   -2.3977    0.9490   -2.0935 H   0  0  0  0  0  0  0  0  0  0  0  0
   -3.7970    2.1463   -0.4470 H   0  0  0  0  0  0  0  0  0  0  0  0
   -3.7038    1.5314    1.9514 H   0  0  0  0  0  0  0  0  0  0  0  0
   -0.7958   -1.5012    1.0756 H   0  0  0  0  0  0  0  0  0  0  0  0
  1  2  1  0
  2  3  2  0
  3  4  1  0
  4  5  2  0
  5  6  1  0
  6  7  2  0
  7  8  1  0
  8  9  1  0
  9 10  1  0
 10 11  2  0
 11 12  1  0
 12 13  2  0
 13 14  1  0
 14 15  1  0
 14 16  2  0
  7  2  1  0
 16 10  1  0
  3 17  1  0
  4 18  1  0
  5 19  1  0
  6 20  1  0
  8 21  1  0
  8 22  1  0
  9 23  1  0
  9 24  1  0
 11 25  1  0
 12 26  1  0
 13 27  1  0
 16 28  1  0
M  RAD  1   1   3
M  END
$$$$
