
     RDKit          3D

 28 29  0  0  0  0  0  0  0  0999 V2000
   -2.2361   -0.2883   -2.7950 N   0  0  0  0  0  1  0  0  0  0  0  0
   -2.2344    0.1857   -1.4502 C   0  0  0  0  0  0  0  0  0  0  0  0
   -2.9295    1.3606   -1.1394 C   0  0  0  0  0  0  0  0  0  0  0  0
   -2.9337    1.8515    0.1683 C   0  0  0  0  0  0  0  0  0  0  0  0
   -2.2422    1.1714    1.1725 C   0  0  0  0  0  0  0  0  0  0  0  0
   -1.5473   -0.0030    0.8726 C   0  0  0  0  0  0  0  0  0  0  0  0
   -1.5403   -0.5117   -0.4385 C   0  0  0  0  0  0  0  0  0  0  0  0
   -0.7416   -1.7567   -0.7503 C   0  0  0  0  0  0  0  0  0  0  0  0
    0.6392   -1.4204   -1.3312 C   0  0  0  0  0  0  0  0  0  0  0  0
    1.4988   -0.6802   -0.3382 C   0  0  0  0  0  0  0  0  0  0  0  0
    2.1747   -1.3820    0.6735 C   0  0  0  0  0  0  0  0  0  0  0  0
    2.9353   -0.6915    1.6219 C   0  0  0  0  0  0  0  0  0  0  0  0
    3.0203    0.7026    1.5719 C   0  0  0  0  0  0  0  0  0  0  0  0
    2.3432    1.4094    0.5738 C   0  0  0  0  0  0  0  0  0  0  0  0
    2.4188    2.7624    0.5317 F   0  0  0  0  0  0  0  0  0  0  0  0
    1.5830    0.7222   -0.3778 C   0  0  0  0  0  0  0  0  0  0  0  0
   -3.4645    1.8968   -1.9133 H   0  0  0  0  0  0  0  0  0  0  0  0
   -3.4704    2.7617    0.4027 H   0  0  0  0  0  0  0  0  0  0  0  0
   -2.2411    1.5567    2.1840 H   0  0  0  0  0  0  0  0  0  0  0  0
   -1.0053   -0.5107    1.6610 H   0  0  0  0  0  0  0  0  0  0  0  0
   -0.6192   -2.3787    0.1639 H   0  0  0  0  0  0  0  0  0  0  0  0
   -1.2981   -2.3833   -1.4802 H   0  0  0  0  0  0  0  0  0  0  0  0
    1.1463   -2.3667   -1.6198 H   0  0  0  0  0  0  0  0  0  0  0  0
    0.5222   -0.8251   -2.2632 H   0  0  0  0  0  0  0  0  0  0  0  0
    2.1074   -2.4615    0.7297 H   0  0  0  0  0  0  0  0  0  0  0  0
    3.4554   -1.2370    2.3987 H   0  0  0  0  0  0  0  0  0  0  0  0
    3.6076    1.2344    2.3093 H   0  0  0  0  0  0  0  0  0  0  0  0
    1.0517    1.2814   -1.1382 H   0  0  0  0  0  0  0  0  0  0  0  0
  1  2  1  0
  2  3  2  0
  3  4  1  0
  4  5  2  0
  5  6  1  0
  6  7  2  0
  7  8  1  0
  8  9  1  0
  9 10  1  0
 10 11  2  0
 11 12  1  0
 12 13  2  0
 13 14  1  0
 14 15  1  0
 14 16  2  0
  7  2  1  0
 16 10  1  0
  3 17  1  0
  4 18  1  0
  5 19  1  0
  6 20  1  0
  8 21  1  0
  8 22  1  0
  9 23  1  0
  9 24  1  0
 11 25  1  0
 12 26  1  0
 13 27  1  0
 16 28  1  0
M  RAD  1   1   3
M  END
$$$$
