
     RDKit          3D

 28 29  0  0  0  0  0  0  0  0999 V2000
   -2.2078   -2.0142    0.9602 N   0  0  0  0  0  1  0  0  0  0  0  0
   -2.7190   -0.7918    0.4328 C   0  0  0  0  0  0  0  0  0  0  0  0
   -4.0725   -0.7124    0.0834 C   0  0  0  0  0  0  0  0  0  0  0  0
   -4.5941    0.4689   -0.4495 C   0  0  0  0  0  0  0  0  0  0  0  0
   -3.7646    1.5756   -0.6404 C   0  0  0  0  0  0  0  0  0  0  0  0
   -2.4124    1.5060   -0.2945 C   0  0  0  0  0  0  0  0  0  0  0  0
   -1.8781    0.3282    0.2569 C   0  0  0  0  0  0  0  0  0  0  0  0
   -0.4083    0.2654    0.5923 C   0  0  0  0  0  0  0  0  0  0  0  0
    0.3931   -0.2782   -0.5944 C   0  0  0  0  0  0  0  0  0  0  0  0
    1.8585   -0.3440   -0.2575 C   0  0  0  0  0  0  0  0  0  0  0  0
    2.3951   -1.4923    0.3485 C   0  0  0  0  0  0  0  0  0  0  0  0
    3.7500   -1.5396    0.6911 C   0  0  0  0  0  0  0  0  0  0  0  0
    4.5749   -0.4395    0.4407 C   0  0  0  0  0  0  0  0  0  0  0  0
    4.0455    0.7121   -0.1492 C   0  0  0  0  0  0  0  0  0  0  0  0
    4.8449    1.7817   -0.3838 F   0  0  0  0  0  0  0  0  0  0  0  0
    2.6906    0.7633   -0.4934 C   0  0  0  0  0  0  0  0  0  0  0  0
   -4.7209   -1.5687    0.2211 H   0  0  0  0  0  0  0  0  0  0  0  0
   -5.6408    0.5246   -0.7193 H   0  0  0  0  0  0  0  0  0  0  0  0
   -4.1689    2.4877   -1.0601 H   0  0  0  0  0  0  0  0  0  0  0  0
   -1.7807    2.3706   -0.4578 H   0  0  0  0  0  0  0  0  0  0  0  0
   -0.0377    1.2808    0.8565 H   0  0  0  0  0  0  0  0  0  0  0  0
   -0.2472   -0.3778    1.4848 H   0  0  0  0  0  0  0  0  0  0  0  0
    0.0245   -1.2922   -0.8651 H   0  0  0  0  0  0  0  0  0  0  0  0
    0.2396    0.3763   -1.4809 H   0  0  0  0  0  0  0  0  0  0  0  0
    1.7645   -2.3479    0.5565 H   0  0  0  0  0  0  0  0  0  0  0  0
    4.1597   -2.4280    1.1540 H   0  0  0  0  0  0  0  0  0  0  0  0
    5.6230   -0.4787    0.7083 H   0  0  0  0  0  0  0  0  0  0  0  0
    2.2889    1.6639   -0.9412 H   0  0  0  0  0  0  0  0  0  0  0  0
  1  2  1  0
  2  3  2  0
  3  4  1  0
  4  5  2  0
  5  6  1  0
  6  7  2  0
  7  8  1  0
  8  9  1  0
  9 10  1  0
 10 11  2  0
 11 12  1  0
 12 13  2  0
 13 14  1  0
 14 15  1  0
 14 16  2  0
  7  2  1  0
 16 10  1  0
  3 17  1  0
  4 18  1  0
  5 19  1  0
  6 20  1  0
  8 21  1  0
  8 22  1  0
  9 23  1  0
  9 24  1  0
 11 25  1  0
 12 26  1  0
 13 27  1  0
 16 28  1  0
M  RAD  1   1   3
M  END
$$$$
