
     RDKit          3D

 25 26  0  0  0  0  0  0  0  0999 V2000
   -1.2661    2.6657    0.5834 N   0  0  0  0  0  1  0  0  0  0  0  0
   -2.0431    1.4944    0.3430 C   0  0  0  0  0  0  0  0  0  0  0  0
   -3.4145    1.5154    0.6246 C   0  0  0  0  0  0  0  0  0  0  0  0
   -4.1946    0.3763    0.4121 C   0  0  0  0  0  0  0  0  0  0  0  0
   -3.6074   -0.7915   -0.0786 C   0  0  0  0  0  0  0  0  0  0  0  0
   -2.2395   -0.8221   -0.3629 C   0  0  0  0  0  0  0  0  0  0  0  0
   -1.4458    0.3219   -0.1679 C   0  0  0  0  0  0  0  0  0  0  0  0
    0.0349    0.2555   -0.4508 C   0  0  0  0  0  0  0  0  0  0  0  0
    0.8073   -0.1351    0.8117 C   0  0  0  0  0  0  0  0  0  0  0  0
    2.2759   -0.1962    0.5309 C   0  0  0  0  0  0  0  0  0  0  0  0
    2.9634   -1.2941    0.0300 C   0  0  0  0  0  0  0  0  0  0  0  0
    4.3194   -1.0344   -0.2016 C   0  0  0  0  0  0  0  0  0  0  0  0
    4.6977    0.2675    0.1020 C   0  0  0  0  0  0  0  0  0  0  0  0
    3.3432    1.0969    0.6560 S   0  0  0  0  0  0  0  0  0  0  0  0
   -3.8763    2.4148    1.0127 H   0  0  0  0  0  0  0  0  0  0  0  0
   -5.2540    0.3974    0.6329 H   0  0  0  0  0  0  0  0  0  0  0  0
   -4.2121   -1.6753   -0.2358 H   0  0  0  0  0  0  0  0  0  0  0  0
   -1.7981   -1.7389   -0.7341 H   0  0  0  0  0  0  0  0  0  0  0  0
    0.2328   -0.4900   -1.2529 H   0  0  0  0  0  0  0  0  0  0  0  0
    0.3964    1.2372   -0.8279 H   0  0  0  0  0  0  0  0  0  0  0  0
    0.4609   -1.1276    1.1743 H   0  0  0  0  0  0  0  0  0  0  0  0
    0.6220    0.6104    1.6151 H   0  0  0  0  0  0  0  0  0  0  0  0
    2.4993   -2.2511   -0.1695 H   0  0  0  0  0  0  0  0  0  0  0  0
    5.0062   -1.7749   -0.5891 H   0  0  0  0  0  0  0  0  0  0  0  0
    5.6921    0.6779   -0.0094 H   0  0  0  0  0  0  0  0  0  0  0  0
  1  2  1  0
  2  3  2  0
  3  4  1  0
  4  5  2  0
  5  6  1  0
  6  7  2  0
  7  8  1  0
  8  9  1  0
  9 10  1  0
 10 11  2  0
 11 12  1  0
 12 13  2  0
 13 14  1  0
  7  2  1  0
 14 10  1  0
  3 15  1  0
  4 16  1  0
  5 17  1  0
  6 18  1  0
  8 19  1  0
  8 20  1  0
  9 21  1  0
  9 22  1  0
 11 23  1  0
 12 24  1  0
 13 25  1  0
M  RAD  1   1   3
M  END
$$$$
