
     RDKit          3D

 25 26  0  0  0  0  0  0  0  0999 V2000
    2.1632   -2.4237    0.5854 N   0  0  0  0  0  1  0  0  0  0  0  0
    1.9574   -1.0212    0.7401 C   0  0  0  0  0  0  0  0  0  0  0  0
    2.3837   -0.3945    1.9173 C   0  0  0  0  0  0  0  0  0  0  0  0
    2.1846    0.9764    2.0971 C   0  0  0  0  0  0  0  0  0  0  0  0
    1.5574    1.7282    1.1019 C   0  0  0  0  0  0  0  0  0  0  0  0
    1.1302    1.1120   -0.0771 C   0  0  0  0  0  0  0  0  0  0  0  0
    1.3301   -0.2661   -0.2738 C   0  0  0  0  0  0  0  0  0  0  0  0
    0.8196   -0.9205   -1.5373 C   0  0  0  0  0  0  0  0  0  0  0  0
   -0.5440   -1.5909   -1.3238 C   0  0  0  0  0  0  0  0  0  0  0  0
   -1.6089   -0.5888   -0.9941 C   0  0  0  0  0  0  0  0  0  0  0  0
   -2.0258   -0.2356    0.2831 C   0  0  0  0  0  0  0  0  0  0  0  0
   -2.9774    0.7908    0.2867 C   0  0  0  0  0  0  0  0  0  0  0  0
   -3.3028    1.2539   -0.9820 C   0  0  0  0  0  0  0  0  0  0  0  0
   -2.4021    0.3886   -2.1087 S   0  0  0  0  0  0  0  0  0  0  0  0
    2.8671   -0.9711    2.6961 H   0  0  0  0  0  0  0  0  0  0  0  0
    2.5139    1.4556    3.0100 H   0  0  0  0  0  0  0  0  0  0  0  0
    1.3985    2.7891    1.2454 H   0  0  0  0  0  0  0  0  0  0  0  0
    0.6344    1.7079   -0.8335 H   0  0  0  0  0  0  0  0  0  0  0  0
    0.7421   -0.1736   -2.3581 H   0  0  0  0  0  0  0  0  0  0  0  0
    1.5485   -1.6858   -1.8808 H   0  0  0  0  0  0  0  0  0  0  0  0
   -0.4748   -2.3490   -0.5138 H   0  0  0  0  0  0  0  0  0  0  0  0
   -0.8326   -2.1240   -2.2547 H   0  0  0  0  0  0  0  0  0  0  0  0
   -1.6438   -0.6944    1.1858 H   0  0  0  0  0  0  0  0  0  0  0  0
   -3.4110    1.1928    1.1926 H   0  0  0  0  0  0  0  0  0  0  0  0
   -4.0074    2.0438   -1.2038 H   0  0  0  0  0  0  0  0  0  0  0  0
  1  2  1  0
  2  3  2  0
  3  4  1  0
  4  5  2  0
  5  6  1  0
  6  7  2  0
  7  8  1  0
  8  9  1  0
  9 10  1  0
 10 11  2  0
 11 12  1  0
 12 13  2  0
 13 14  1  0
  7  2  1  0
 14 10  1  0
  3 15  1  0
  4 16  1  0
  5 17  1  0
  6 18  1  0
  8 19  1  0
  8 20  1  0
  9 21  1  0
  9 22  1  0
 11 23  1  0
 12 24  1  0
 13 25  1  0
M  RAD  1   1   3
M  END
$$$$
