
     RDKit          3D

 25 26  0  0  0  0  0  0  0  0999 V2000
    2.0976   -1.0856    2.2090 N   0  0  0  0  0  1  0  0  0  0  0  0
    1.9733   -0.1637    1.1282 C   0  0  0  0  0  0  0  0  0  0  0  0
    2.5451    1.1088    1.2471 C   0  0  0  0  0  0  0  0  0  0  0  0
    2.4284    2.0332    0.2064 C   0  0  0  0  0  0  0  0  0  0  0  0
    1.7388    1.6913   -0.9583 C   0  0  0  0  0  0  0  0  0  0  0  0
    1.1665    0.4233   -1.0869 C   0  0  0  0  0  0  0  0  0  0  0  0
    1.2818   -0.5192   -0.0496 C   0  0  0  0  0  0  0  0  0  0  0  0
    0.6163   -1.8691   -0.1915 C   0  0  0  0  0  0  0  0  0  0  0  0
   -0.7480   -1.9111    0.5095 C   0  0  0  0  0  0  0  0  0  0  0  0
   -1.7268   -0.9700   -0.1257 C   0  0  0  0  0  0  0  0  0  0  0  0
   -1.9953    0.3275    0.2915 C   0  0  0  0  0  0  0  0  0  0  0  0
   -2.8934    0.9995   -0.5457 C   0  0  0  0  0  0  0  0  0  0  0  0
   -3.3241    0.2394   -1.6258 C   0  0  0  0  0  0  0  0  0  0  0  0
   -2.5830   -1.2683   -1.5415 S   0  0  0  0  0  0  0  0  0  0  0  0
    3.0779    1.3835    2.1489 H   0  0  0  0  0  0  0  0  0  0  0  0
    2.8702    3.0164    0.3043 H   0  0  0  0  0  0  0  0  0  0  0  0
    1.6442    2.4109   -1.7612 H   0  0  0  0  0  0  0  0  0  0  0  0
    0.6244    0.1791   -1.9923 H   0  0  0  0  0  0  0  0  0  0  0  0
    0.4905   -2.1297   -1.2658 H   0  0  0  0  0  0  0  0  0  0  0  0
    1.2707   -2.6544    0.2445 H   0  0  0  0  0  0  0  0  0  0  0  0
   -0.6320   -1.6649    1.5872 H   0  0  0  0  0  0  0  0  0  0  0  0
   -1.1536   -2.9433    0.4457 H   0  0  0  0  0  0  0  0  0  0  0  0
   -1.5453    0.7806    1.1653 H   0  0  0  0  0  0  0  0  0  0  0  0
   -3.2140    2.0182   -0.3737 H   0  0  0  0  0  0  0  0  0  0  0  0
   -4.0104    0.5675   -2.3946 H   0  0  0  0  0  0  0  0  0  0  0  0
  1  2  1  0
  2  3  2  0
  3  4  1  0
  4  5  2  0
  5  6  1  0
  6  7  2  0
  7  8  1  0
  8  9  1  0
  9 10  1  0
 10 11  2  0
 11 12  1  0
 12 13  2  0
 13 14  1  0
  7  2  1  0
 14 10  1  0
  3 15  1  0
  4 16  1  0
  5 17  1  0
  6 18  1  0
  8 19  1  0
  8 20  1  0
  9 21  1  0
  9 22  1  0
 11 23  1  0
 12 24  1  0
 13 25  1  0
M  RAD  1   1   3
M  END
$$$$
