
     RDKit          3D

 25 26  0  0  0  0  0  0  0  0999 V2000
   -1.4551    1.9494    1.6066 N   0  0  0  0  0  1  0  0  0  0  0  0
   -2.1426    0.9543    0.8512 C   0  0  0  0  0  0  0  0  0  0  0  0
   -3.4808    0.6726    1.1518 C   0  0  0  0  0  0  0  0  0  0  0  0
   -4.1718   -0.3084    0.4366 C   0  0  0  0  0  0  0  0  0  0  0  0
   -3.5277   -1.0164   -0.5799 C   0  0  0  0  0  0  0  0  0  0  0  0
   -2.1923   -0.7421   -0.8874 C   0  0  0  0  0  0  0  0  0  0  0  0
   -1.4898    0.2531   -0.1855 C   0  0  0  0  0  0  0  0  0  0  0  0
   -0.0392    0.5092   -0.5129 C   0  0  0  0  0  0  0  0  0  0  0  0
    0.8716   -0.3444    0.3733 C   0  0  0  0  0  0  0  0  0  0  0  0
    2.3098   -0.0862    0.0506 C   0  0  0  0  0  0  0  0  0  0  0  0
    3.0463   -0.7166   -0.9439 C   0  0  0  0  0  0  0  0  0  0  0  0
    4.3485   -0.2169   -1.0635 C   0  0  0  0  0  0  0  0  0  0  0  0
    4.6343    0.8134   -0.1765 C   0  0  0  0  0  0  0  0  0  0  0  0
    3.2645    1.1050    0.7553 S   0  0  0  0  0  0  0  0  0  0  0  0
   -3.9854    1.2118    1.9437 H   0  0  0  0  0  0  0  0  0  0  0  0
   -5.2057   -0.5233    0.6739 H   0  0  0  0  0  0  0  0  0  0  0  0
   -4.0626   -1.7811   -1.1282 H   0  0  0  0  0  0  0  0  0  0  0  0
   -1.7048   -1.3071   -1.6725 H   0  0  0  0  0  0  0  0  0  0  0  0
    0.1540    0.2709   -1.5825 H   0  0  0  0  0  0  0  0  0  0  0  0
    0.1993    1.5865   -0.3753 H   0  0  0  0  0  0  0  0  0  0  0  0
    0.6476   -1.4223    0.2172 H   0  0  0  0  0  0  0  0  0  0  0  0
    0.6910   -0.1052    1.4436 H   0  0  0  0  0  0  0  0  0  0  0  0
    2.6537   -1.5077   -1.5693 H   0  0  0  0  0  0  0  0  0  0  0  0
    5.0624   -0.5915   -1.7849 H   0  0  0  0  0  0  0  0  0  0  0  0
    5.5748    1.3428   -0.1060 H   0  0  0  0  0  0  0  0  0  0  0  0
  1  2  1  0
  2  3  2  0
  3  4  1  0
  4  5  2  0
  5  6  1  0
  6  7  2  0
  7  8  1  0
  8  9  1  0
  9 10  1  0
 10 11  2  0
 11 12  1  0
 12 13  2  0
 13 14  1  0
  7  2  1  0
 14 10  1  0
  3 15  1  0
  4 16  1  0
  5 17  1  0
  6 18  1  0
  8 19  1  0
  8 20  1  0
  9 21  1  0
  9 22  1  0
 11 23  1  0
 12 24  1  0
 13 25  1  0
M  RAD  1   1   3
M  END
$$$$
