
     RDKit          3D

 25 26  0  0  0  0  0  0  0  0999 V2000
   -1.7148    1.2678    2.1750 N   0  0  0  0  0  1  0  0  0  0  0  0
   -2.2731    0.7148    0.9850 C   0  0  0  0  0  0  0  0  0  0  0  0
   -3.6152    0.9701    0.6781 C   0  0  0  0  0  0  0  0  0  0  0  0
   -4.1814    0.4526   -0.4893 C   0  0  0  0  0  0  0  0  0  0  0  0
   -3.4081   -0.3191   -1.3587 C   0  0  0  0  0  0  0  0  0  0  0  0
   -2.0678   -0.5795   -1.0609 C   0  0  0  0  0  0  0  0  0  0  0  0
   -1.4897   -0.0773    0.1182 C   0  0  0  0  0  0  0  0  0  0  0  0
   -0.0320   -0.3440    0.4027 C   0  0  0  0  0  0  0  0  0  0  0  0
    0.8405    0.7832   -0.1554 C   0  0  0  0  0  0  0  0  0  0  0  0
    2.2854    0.5197    0.1311 C   0  0  0  0  0  0  0  0  0  0  0  0
    3.1442   -0.2418   -0.6509 C   0  0  0  0  0  0  0  0  0  0  0  0
    4.4217   -0.3751   -0.0940 C   0  0  0  0  0  0  0  0  0  0  0  0
    4.5665    0.2667    1.1296 C   0  0  0  0  0  0  0  0  0  0  0  0
    3.1029    0.9980    1.5203 S   0  0  0  0  0  0  0  0  0  0  0  0
   -4.2198    1.5740    1.3433 H   0  0  0  0  0  0  0  0  0  0  0  0
   -5.2189    0.6541   -0.7226 H   0  0  0  0  0  0  0  0  0  0  0  0
   -3.8466   -0.7133   -2.2664 H   0  0  0  0  0  0  0  0  0  0  0  0
   -1.4794   -1.1720   -1.7507 H   0  0  0  0  0  0  0  0  0  0  0  0
    0.1318   -0.4433    1.4980 H   0  0  0  0  0  0  0  0  0  0  0  0
    0.2715   -1.3109   -0.0570 H   0  0  0  0  0  0  0  0  0  0  0  0
    0.5496    1.7515    0.3062 H   0  0  0  0  0  0  0  0  0  0  0  0
    0.6930    0.8659   -1.2545 H   0  0  0  0  0  0  0  0  0  0  0  0
    2.8557   -0.6938   -1.5909 H   0  0  0  0  0  0  0  0  0  0  0  0
    5.2185   -0.9330   -0.5674 H   0  0  0  0  0  0  0  0  0  0  0  0
    5.4653    0.2833    1.7310 H   0  0  0  0  0  0  0  0  0  0  0  0
  1  2  1  0
  2  3  2  0
  3  4  1  0
  4  5  2  0
  5  6  1  0
  6  7  2  0
  7  8  1  0
  8  9  1  0
  9 10  1  0
 10 11  2  0
 11 12  1  0
 12 13  2  0
 13 14  1  0
  7  2  1  0
 14 10  1  0
  3 15  1  0
  4 16  1  0
  5 17  1  0
  6 18  1  0
  8 19  1  0
  8 20  1  0
  9 21  1  0
  9 22  1  0
 11 23  1  0
 12 24  1  0
 13 25  1  0
M  RAD  1   1   3
M  END
$$$$
