
     RDKit          3D

 25 26  0  0  0  0  0  0  0  0999 V2000
   -1.5310   -1.6209    2.1324 N   0  0  0  0  0  1  0  0  0  0  0  0
   -2.1848   -0.8301    1.1421 C   0  0  0  0  0  0  0  0  0  0  0  0
   -3.5498   -0.5519    1.2826 C   0  0  0  0  0  0  0  0  0  0  0  0
   -4.2098    0.2330    0.3342 C   0  0  0  0  0  0  0  0  0  0  0  0
   -3.5081    0.7482   -0.7574 C   0  0  0  0  0  0  0  0  0  0  0  0
   -2.1455    0.4759   -0.9063 C   0  0  0  0  0  0  0  0  0  0  0  0
   -1.4725   -0.3252    0.0329 C   0  0  0  0  0  0  0  0  0  0  0  0
    0.0059   -0.5788   -0.1310 C   0  0  0  0  0  0  0  0  0  0  0  0
    0.8199    0.4752    0.6239 C   0  0  0  0  0  0  0  0  0  0  0  0
    2.2857    0.2200    0.4643 C   0  0  0  0  0  0  0  0  0  0  0  0
    3.0800    0.6676   -0.5833 C   0  0  0  0  0  0  0  0  0  0  0  0
    4.4012    0.2113   -0.5050 C   0  0  0  0  0  0  0  0  0  0  0  0
    4.6453   -0.6048    0.5925 C   0  0  0  0  0  0  0  0  0  0  0  0
    3.2152   -0.7613    1.4644 S   0  0  0  0  0  0  0  0  0  0  0  0
   -4.0998   -0.9413    2.1303 H   0  0  0  0  0  0  0  0  0  0  0  0
   -5.2648    0.4463    0.4482 H   0  0  0  0  0  0  0  0  0  0  0  0
   -4.0195    1.3622   -1.4874 H   0  0  0  0  0  0  0  0  0  0  0  0
   -1.6139    0.8911   -1.7538 H   0  0  0  0  0  0  0  0  0  0  0  0
    0.2758   -0.5536   -1.2102 H   0  0  0  0  0  0  0  0  0  0  0  0
    0.2631   -1.5946    0.2412 H   0  0  0  0  0  0  0  0  0  0  0  0
    0.5626    0.4498    1.7050 H   0  0  0  0  0  0  0  0  0  0  0  0
    0.5787    1.4885    0.2347 H   0  0  0  0  0  0  0  0  0  0  0  0
    2.7157    1.2980   -1.3840 H   0  0  0  0  0  0  0  0  0  0  0  0
    5.1587    0.4629   -1.2352 H   0  0  0  0  0  0  0  0  0  0  0  0
    5.5918   -1.0675    0.8368 H   0  0  0  0  0  0  0  0  0  0  0  0
  1  2  1  0
  2  3  2  0
  3  4  1  0
  4  5  2  0
  5  6  1  0
  6  7  2  0
  7  8  1  0
  8  9  1  0
  9 10  1  0
 10 11  2  0
 11 12  1  0
 12 13  2  0
 13 14  1  0
  7  2  1  0
 14 10  1  0
  3 15  1  0
  4 16  1  0
  5 17  1  0
  6 18  1  0
  8 19  1  0
  8 20  1  0
  9 21  1  0
  9 22  1  0
 11 23  1  0
 12 24  1  0
 13 25  1  0
M  RAD  1   1   3
M  END
$$$$
