
     RDKit          3D

 25 26  0  0  0  0  0  0  0  0999 V2000
   -1.7864    2.3817   -0.1813 N   0  0  0  0  0  1  0  0  0  0  0  0
   -2.3016    1.0519   -0.1862 C   0  0  0  0  0  0  0  0  0  0  0  0
   -3.6702    0.8494    0.0288 C   0  0  0  0  0  0  0  0  0  0  0  0
   -4.1969   -0.4443    0.0439 C   0  0  0  0  0  0  0  0  0  0  0  0
   -3.3577   -1.5430   -0.1513 C   0  0  0  0  0  0  0  0  0  0  0  0
   -1.9904   -1.3509   -0.3670 C   0  0  0  0  0  0  0  0  0  0  0  0
   -1.4499   -0.0534   -0.3996 C   0  0  0  0  0  0  0  0  0  0  0  0
    0.0344    0.1280   -0.6015 C   0  0  0  0  0  0  0  0  0  0  0  0
    0.7590    0.1779    0.7461 C   0  0  0  0  0  0  0  0  0  0  0  0
    2.2302    0.3622    0.5446 C   0  0  0  0  0  0  0  0  0  0  0  0
    3.1549   -0.6510    0.3280 C   0  0  0  0  0  0  0  0  0  0  0  0
    4.4506   -0.1728    0.0987 C   0  0  0  0  0  0  0  0  0  0  0  0
    4.5455    1.2131    0.1202 C   0  0  0  0  0  0  0  0  0  0  0  0
    3.0155    1.8439    0.4216 S   0  0  0  0  0  0  0  0  0  0  0  0
   -4.3267    1.6957    0.1887 H   0  0  0  0  0  0  0  0  0  0  0  0
   -5.2554   -0.5955    0.2120 H   0  0  0  0  0  0  0  0  0  0  0  0
   -3.7664   -2.5450   -0.1322 H   0  0  0  0  0  0  0  0  0  0  0  0
   -1.3519   -2.2145   -0.5073 H   0  0  0  0  0  0  0  0  0  0  0  0
    0.4381   -0.7122   -1.2093 H   0  0  0  0  0  0  0  0  0  0  0  0
    0.2313    1.0616   -1.1726 H   0  0  0  0  0  0  0  0  0  0  0  0
    0.3676    1.0209    1.3557 H   0  0  0  0  0  0  0  0  0  0  0  0
    0.5801   -0.7661    1.3060 H   0  0  0  0  0  0  0  0  0  0  0  0
    2.9014   -1.7031    0.3278 H   0  0  0  0  0  0  0  0  0  0  0  0
    5.2966   -0.8209   -0.0868 H   0  0  0  0  0  0  0  0  0  0  0  0
    5.4485    1.7863   -0.0398 H   0  0  0  0  0  0  0  0  0  0  0  0
  1  2  1  0
  2  3  2  0
  3  4  1  0
  4  5  2  0
  5  6  1  0
  6  7  2  0
  7  8  1  0
  8  9  1  0
  9 10  1  0
 10 11  2  0
 11 12  1  0
 12 13  2  0
 13 14  1  0
  7  2  1  0
 14 10  1  0
  3 15  1  0
  4 16  1  0
  5 17  1  0
  6 18  1  0
  8 19  1  0
  8 20  1  0
  9 21  1  0
  9 22  1  0
 11 23  1  0
 12 24  1  0
 13 25  1  0
M  RAD  1   1   3
M  END
$$$$
