
     RDKit          3D

 25 26  0  0  0  0  0  0  0  0999 V2000
   -1.3245    2.6120    0.5139 N   0  0  0  0  0  1  0  0  0  0  0  0
   -2.0748    1.4416    0.1963 C   0  0  0  0  0  0  0  0  0  0  0  0
   -3.4502    1.4209    0.4578 C   0  0  0  0  0  0  0  0  0  0  0  0
   -4.2046    0.2810    0.1699 C   0  0  0  0  0  0  0  0  0  0  0  0
   -3.5877   -0.8460   -0.3766 C   0  0  0  0  0  0  0  0  0  0  0  0
   -2.2156   -0.8347   -0.6413 C   0  0  0  0  0  0  0  0  0  0  0  0
   -1.4474    0.3113   -0.3704 C   0  0  0  0  0  0  0  0  0  0  0  0
    0.0382    0.2889   -0.6340 C   0  0  0  0  0  0  0  0  0  0  0  0
    0.8003   -0.1576    0.6162 C   0  0  0  0  0  0  0  0  0  0  0  0
    2.2735   -0.1751    0.3548 C   0  0  0  0  0  0  0  0  0  0  0  0
    2.9895   -1.2298   -0.1964 C   0  0  0  0  0  0  0  0  0  0  0  0
    4.3433   -0.9319   -0.3925 C   0  0  0  0  0  0  0  0  0  0  0  0
    4.6916    0.3577   -0.0106 C   0  0  0  0  0  0  0  0  0  0  0  0
    3.3133    1.1289    0.5684 S   0  0  0  0  0  0  0  0  0  0  0  0
   -3.9351    2.2880    0.8886 H   0  0  0  0  0  0  0  0  0  0  0  0
   -5.2673    0.2696    0.3753 H   0  0  0  0  0  0  0  0  0  0  0  0
   -4.1726   -1.7308   -0.5923 H   0  0  0  0  0  0  0  0  0  0  0  0
   -1.7510   -1.7206   -1.0566 H   0  0  0  0  0  0  0  0  0  0  0  0
    0.2620   -0.4063   -1.4735 H   0  0  0  0  0  0  0  0  0  0  0  0
    0.3855    1.2969   -0.9499 H   0  0  0  0  0  0  0  0  0  0  0  0
    0.4683   -1.1753    0.9172 H   0  0  0  0  0  0  0  0  0  0  0  0
    0.5890    0.5377    1.4572 H   0  0  0  0  0  0  0  0  0  0  0  0
    2.5472   -2.1826   -0.4564 H   0  0  0  0  0  0  0  0  0  0  0  0
    5.0500   -1.6363   -0.8104 H   0  0  0  0  0  0  0  0  0  0  0  0
    5.6792    0.7924   -0.0837 H   0  0  0  0  0  0  0  0  0  0  0  0
  1  2  1  0
  2  3  2  0
  3  4  1  0
  4  5  2  0
  5  6  1  0
  6  7  2  0
  7  8  1  0
  8  9  1  0
  9 10  1  0
 10 11  2  0
 11 12  1  0
 12 13  2  0
 13 14  1  0
  7  2  1  0
 14 10  1  0
  3 15  1  0
  4 16  1  0
  5 17  1  0
  6 18  1  0
  8 19  1  0
  8 20  1  0
  9 21  1  0
  9 22  1  0
 11 23  1  0
 12 24  1  0
 13 25  1  0
M  RAD  1   1   3
M  END
$$$$
