
     RDKit          3D

 31 33  0  0  0  0  0  0  0  0999 V2000
   -1.1249   -2.0329    0.0636 N   0  0  0  0  0  1  0  0  0  0  0  0
   -1.9116   -0.8982    0.4200 C   0  0  0  0  0  0  0  0  0  0  0  0
   -2.2722   -0.7155    1.7603 C   0  0  0  0  0  0  0  0  0  0  0  0
   -3.0324    0.3926    2.1408 C   0  0  0  0  0  0  0  0  0  0  0  0
   -3.4350    1.3258    1.1839 C   0  0  0  0  0  0  0  0  0  0  0  0
   -3.0791    1.1534   -0.1562 C   0  0  0  0  0  0  0  0  0  0  0  0
   -2.3197    0.0394   -0.5547 C   0  0  0  0  0  0  0  0  0  0  0  0
   -1.9099   -0.0935   -2.0046 C   0  0  0  0  0  0  0  0  0  0  0  0
   -0.7140    0.8059   -2.3450 C   0  0  0  0  0  0  0  0  0  0  0  0
    0.5196    0.3931   -1.6011 C   0  0  0  0  0  0  0  0  0  0  0  0
    0.9222    0.8981   -0.3641 C   0  0  0  0  0  0  0  0  0  0  0  0
    2.0607    0.2522    0.1266 C   0  0  0  0  0  0  0  0  0  0  0  0
    2.7034    0.5209    1.3378 C   0  0  0  0  0  0  0  0  0  0  0  0
    3.8368   -0.2345    1.6842 C   0  0  0  0  0  0  0  0  0  0  0  0
    4.3112   -1.2449    0.8246 C   0  0  0  0  0  0  0  0  0  0  0  0
    3.6562   -1.5095   -0.3883 C   0  0  0  0  0  0  0  0  0  0  0  0
    2.5366   -0.7465   -0.7109 C   0  0  0  0  0  0  0  0  0  0  0  0
    1.5589   -0.8573   -2.0714 S   0  0  0  0  0  0  0  0  0  0  0  0
   -1.9599   -1.4319    2.5098 H   0  0  0  0  0  0  0  0  0  0  0  0
   -3.3071    0.5295    3.1787 H   0  0  0  0  0  0  0  0  0  0  0  0
   -4.0203    2.1864    1.4813 H   0  0  0  0  0  0  0  0  0  0  0  0
   -3.3905    1.8920   -0.8846 H   0  0  0  0  0  0  0  0  0  0  0  0
   -2.7665    0.1978   -2.6507 H   0  0  0  0  0  0  0  0  0  0  0  0
   -1.6728   -1.1483   -2.2620 H   0  0  0  0  0  0  0  0  0  0  0  0
   -0.9567    1.8661   -2.1147 H   0  0  0  0  0  0  0  0  0  0  0  0
   -0.5126    0.7400   -3.4355 H   0  0  0  0  0  0  0  0  0  0  0  0
    0.3992    1.6857    0.1638 H   0  0  0  0  0  0  0  0  0  0  0  0
    2.3379    1.2951    2.0008 H   0  0  0  0  0  0  0  0  0  0  0  0
    4.3476   -0.0395    2.6181 H   0  0  0  0  0  0  0  0  0  0  0  0
    5.1839   -1.8217    1.1018 H   0  0  0  0  0  0  0  0  0  0  0  0
    4.0110   -2.2869   -1.0524 H   0  0  0  0  0  0  0  0  0  0  0  0
  1  2  1  0
  2  3  2  0
  3  4  1  0
  4  5  2  0
  5  6  1  0
  6  7  2  0
  7  8  1  0
  8  9  1  0
  9 10  1  0
 10 11  2  0
 11 12  1  0
 12 13  2  0
 13 14  1  0
 14 15  2  0
 15 16  1  0
 16 17  2  0
 17 18  1  0
  7  2  1  0
 18 10  1  0
 17 12  1  0
  3 19  1  0
  4 20  1  0
  5 21  1  0
  6 22  1  0
  8 23  1  0
  8 24  1  0
  9 25  1  0
  9 26  1  0
 11 27  1  0
 13 28  1  0
 14 29  1  0
 15 30  1  0
 16 31  1  0
M  RAD  1   1   3
M  END
$$$$
