
     RDKit          3D

 31 33  0  0  0  0  0  0  0  0999 V2000
    3.0208   -2.0146   -1.3867 N   0  0  0  0  0  1  0  0  0  0  0  0
    3.5871   -0.9332   -0.6497 C   0  0  0  0  0  0  0  0  0  0  0  0
    4.9555   -0.6642   -0.7752 C   0  0  0  0  0  0  0  0  0  0  0  0
    5.5313    0.3989   -0.0756 C   0  0  0  0  0  0  0  0  0  0  0  0
    4.7417    1.2020    0.7497 C   0  0  0  0  0  0  0  0  0  0  0  0
    3.3751    0.9413    0.8816 C   0  0  0  0  0  0  0  0  0  0  0  0
    2.7859   -0.1348    0.1949 C   0  0  0  0  0  0  0  0  0  0  0  0
    1.3025   -0.3772    0.3271 C   0  0  0  0  0  0  0  0  0  0  0  0
    0.5362    0.3613   -0.7732 C   0  0  0  0  0  0  0  0  0  0  0  0
   -0.9341    0.1159   -0.6433 C   0  0  0  0  0  0  0  0  0  0  0  0
   -1.8069    0.8480    0.1622 C   0  0  0  0  0  0  0  0  0  0  0  0
   -3.1088    0.3381    0.1320 C   0  0  0  0  0  0  0  0  0  0  0  0
   -4.2103    0.8470    0.8251 C   0  0  0  0  0  0  0  0  0  0  0  0
   -5.4527    0.2049    0.6859 C   0  0  0  0  0  0  0  0  0  0  0  0
   -5.5807   -0.9319   -0.1364 C   0  0  0  0  0  0  0  0  0  0  0  0
   -4.4676   -1.4369   -0.8266 C   0  0  0  0  0  0  0  0  0  0  0  0
   -3.2475   -0.7826   -0.6746 C   0  0  0  0  0  0  0  0  0  0  0  0
   -1.7665   -1.1691   -1.3649 S   0  0  0  0  0  0  0  0  0  0  0  0
    5.5735   -1.2775   -1.4191 H   0  0  0  0  0  0  0  0  0  0  0  0
    6.5893    0.6035   -0.1772 H   0  0  0  0  0  0  0  0  0  0  0  0
    5.1883    2.0297    1.2854 H   0  0  0  0  0  0  0  0  0  0  0  0
    2.7752    1.5796    1.5185 H   0  0  0  0  0  0  0  0  0  0  0  0
    0.9504   -0.0282    1.3233 H   0  0  0  0  0  0  0  0  0  0  0  0
    1.0868   -1.4667    0.2734 H   0  0  0  0  0  0  0  0  0  0  0  0
    0.8760    0.0113   -1.7719 H   0  0  0  0  0  0  0  0  0  0  0  0
    0.7345    1.4533   -0.7037 H   0  0  0  0  0  0  0  0  0  0  0  0
   -1.5072    1.7071    0.7491 H   0  0  0  0  0  0  0  0  0  0  0  0
   -4.1132    1.7195    1.4589 H   0  0  0  0  0  0  0  0  0  0  0  0
   -6.3167    0.5858    1.2148 H   0  0  0  0  0  0  0  0  0  0  0  0
   -6.5418   -1.4193   -0.2357 H   0  0  0  0  0  0  0  0  0  0  0  0
   -4.5562   -2.3111   -1.4584 H   0  0  0  0  0  0  0  0  0  0  0  0
  1  2  1  0
  2  3  2  0
  3  4  1  0
  4  5  2  0
  5  6  1  0
  6  7  2  0
  7  8  1  0
  8  9  1  0
  9 10  1  0
 10 11  2  0
 11 12  1  0
 12 13  2  0
 13 14  1  0
 14 15  2  0
 15 16  1  0
 16 17  2  0
 17 18  1  0
  7  2  1  0
 18 10  1  0
 17 12  1  0
  3 19  1  0
  4 20  1  0
  5 21  1  0
  6 22  1  0
  8 23  1  0
  8 24  1  0
  9 25  1  0
  9 26  1  0
 11 27  1  0
 13 28  1  0
 14 29  1  0
 15 30  1  0
 16 31  1  0
M  RAD  1   1   3
M  END
$$$$
