
     RDKit          3D

 31 33  0  0  0  0  0  0  0  0999 V2000
   -2.9219    2.4405   -0.7565 N   0  0  0  0  0  1  0  0  0  0  0  0
   -3.5369    1.1781   -0.5080 C   0  0  0  0  0  0  0  0  0  0  0  0
   -4.9208    1.1217   -0.3026 C   0  0  0  0  0  0  0  0  0  0  0  0
   -5.5448   -0.1006   -0.0423 C   0  0  0  0  0  0  0  0  0  0  0  0
   -4.7885   -1.2726    0.0188 C   0  0  0  0  0  0  0  0  0  0  0  0
   -3.4068   -1.2265   -0.1851 C   0  0  0  0  0  0  0  0  0  0  0  0
   -2.7683   -0.0051   -0.4629 C   0  0  0  0  0  0  0  0  0  0  0  0
   -1.2710    0.0252   -0.6472 C   0  0  0  0  0  0  0  0  0  0  0  0
   -0.5700    0.2994    0.6857 C   0  0  0  0  0  0  0  0  0  0  0  0
    0.9143    0.3335    0.5001 C   0  0  0  0  0  0  0  0  0  0  0  0
    1.7573   -0.7778    0.5276 C   0  0  0  0  0  0  0  0  0  0  0  0
    3.0862   -0.4414    0.2505 C   0  0  0  0  0  0  0  0  0  0  0  0
    4.1685   -1.3242    0.2058 C   0  0  0  0  0  0  0  0  0  0  0  0
    5.4438   -0.8162   -0.0959 C   0  0  0  0  0  0  0  0  0  0  0  0
    5.6231    0.5579   -0.3500 C   0  0  0  0  0  0  0  0  0  0  0  0
    4.5291    1.4362   -0.3051 C   0  0  0  0  0  0  0  0  0  0  0  0
    3.2756    0.9099   -0.0022 C   0  0  0  0  0  0  0  0  0  0  0  0
    1.8074    1.7170    0.1083 S   0  0  0  0  0  0  0  0  0  0  0  0
   -5.5136    2.0271   -0.3407 H   0  0  0  0  0  0  0  0  0  0  0  0
   -6.6147   -0.1385    0.1172 H   0  0  0  0  0  0  0  0  0  0  0  0
   -5.2728   -2.2178    0.2278 H   0  0  0  0  0  0  0  0  0  0  0  0
   -2.8336   -2.1435   -0.1250 H   0  0  0  0  0  0  0  0  0  0  0  0
   -0.9215   -0.9484   -1.0572 H   0  0  0  0  0  0  0  0  0  0  0  0
   -0.9928    0.8051   -1.3894 H   0  0  0  0  0  0  0  0  0  0  0  0
   -0.9071    1.2753    1.0973 H   0  0  0  0  0  0  0  0  0  0  0  0
   -0.8308   -0.4940    1.4198 H   0  0  0  0  0  0  0  0  0  0  0  0
    1.4185   -1.7856    0.7321 H   0  0  0  0  0  0  0  0  0  0  0  0
    4.0319   -2.3807    0.3992 H   0  0  0  0  0  0  0  0  0  0  0  0
    6.2935   -1.4853   -0.1341 H   0  0  0  0  0  0  0  0  0  0  0  0
    6.6093    0.9383   -0.5824 H   0  0  0  0  0  0  0  0  0  0  0  0
    4.6573    2.4927   -0.5016 H   0  0  0  0  0  0  0  0  0  0  0  0
  1  2  1  0
  2  3  2  0
  3  4  1  0
  4  5  2  0
  5  6  1  0
  6  7  2  0
  7  8  1  0
  8  9  1  0
  9 10  1  0
 10 11  2  0
 11 12  1  0
 12 13  2  0
 13 14  1  0
 14 15  2  0
 15 16  1  0
 16 17  2  0
 17 18  1  0
  7  2  1  0
 18 10  1  0
 17 12  1  0
  3 19  1  0
  4 20  1  0
  5 21  1  0
  6 22  1  0
  8 23  1  0
  8 24  1  0
  9 25  1  0
  9 26  1  0
 11 27  1  0
 13 28  1  0
 14 29  1  0
 15 30  1  0
 16 31  1  0
M  RAD  1   1   3
M  END
$$$$
