
     RDKit          3D

 31 33  0  0  0  0  0  0  0  0999 V2000
   -2.9462    0.1398    2.5600 N   0  0  0  0  0  1  0  0  0  0  0  0
   -3.5432   -0.1226    1.2918 C   0  0  0  0  0  0  0  0  0  0  0  0
   -4.9316   -0.0056    1.1538 C   0  0  0  0  0  0  0  0  0  0  0  0
   -5.5389   -0.2425   -0.0817 C   0  0  0  0  0  0  0  0  0  0  0  0
   -4.7613   -0.5930   -1.1871 C   0  0  0  0  0  0  0  0  0  0  0  0
   -3.3748   -0.7125   -1.0591 C   0  0  0  0  0  0  0  0  0  0  0  0
   -2.7526   -0.4917    0.1822 C   0  0  0  0  0  0  0  0  0  0  0  0
   -1.2510   -0.5945    0.2889 C   0  0  0  0  0  0  0  0  0  0  0  0
   -0.5997    0.7704    0.0518 C   0  0  0  0  0  0  0  0  0  0  0  0
    0.8889    0.6673    0.1624 C   0  0  0  0  0  0  0  0  0  0  0  0
    1.7530    0.3119   -0.8736 C   0  0  0  0  0  0  0  0  0  0  0  0
    3.0831    0.2304   -0.4493 C   0  0  0  0  0  0  0  0  0  0  0  0
    4.1841   -0.0980   -1.2448 C   0  0  0  0  0  0  0  0  0  0  0  0
    5.4579   -0.1405   -0.6525 C   0  0  0  0  0  0  0  0  0  0  0  0
    5.6175    0.1412    0.7186 C   0  0  0  0  0  0  0  0  0  0  0  0
    4.5049    0.4677    1.5097 C   0  0  0  0  0  0  0  0  0  0  0  0
    3.2531    0.5054    0.9001 C   0  0  0  0  0  0  0  0  0  0  0  0
    1.7660    0.8521    1.5983 S   0  0  0  0  0  0  0  0  0  0  0  0
   -5.5411    0.2733    2.0042 H   0  0  0  0  0  0  0  0  0  0  0  0
   -6.6124   -0.1493   -0.1835 H   0  0  0  0  0  0  0  0  0  0  0  0
   -5.2328   -0.7691   -2.1453 H   0  0  0  0  0  0  0  0  0  0  0  0
   -2.7853   -0.9761   -1.9287 H   0  0  0  0  0  0  0  0  0  0  0  0
   -0.8684   -1.3236   -0.4596 H   0  0  0  0  0  0  0  0  0  0  0  0
   -0.9645   -0.9822    1.2910 H   0  0  0  0  0  0  0  0  0  0  0  0
   -0.9699    1.5023    0.8019 H   0  0  0  0  0  0  0  0  0  0  0  0
   -0.8683    1.1463   -0.9597 H   0  0  0  0  0  0  0  0  0  0  0  0
    1.4283    0.1141   -1.8874 H   0  0  0  0  0  0  0  0  0  0  0  0
    4.0628   -0.3165   -2.2984 H   0  0  0  0  0  0  0  0  0  0  0  0
    6.3219   -0.3923   -1.2537 H   0  0  0  0  0  0  0  0  0  0  0  0
    6.6028    0.1046    1.1648 H   0  0  0  0  0  0  0  0  0  0  0  0
    4.6179    0.6830    2.5643 H   0  0  0  0  0  0  0  0  0  0  0  0
  1  2  1  0
  2  3  2  0
  3  4  1  0
  4  5  2  0
  5  6  1  0
  6  7  2  0
  7  8  1  0
  8  9  1  0
  9 10  1  0
 10 11  2  0
 11 12  1  0
 12 13  2  0
 13 14  1  0
 14 15  2  0
 15 16  1  0
 16 17  2  0
 17 18  1  0
  7  2  1  0
 18 10  1  0
 17 12  1  0
  3 19  1  0
  4 20  1  0
  5 21  1  0
  6 22  1  0
  8 23  1  0
  8 24  1  0
  9 25  1  0
  9 26  1  0
 11 27  1  0
 13 28  1  0
 14 29  1  0
 15 30  1  0
 16 31  1  0
M  RAD  1   1   3
M  END
$$$$
