
     RDKit          3D

 31 33  0  0  0  0  0  0  0  0999 V2000
   -3.6617   -1.8021    1.1991 N   0  0  0  0  0  1  0  0  0  0  0  0
   -3.1571   -0.5727    0.6820 C   0  0  0  0  0  0  0  0  0  0  0  0
   -3.5422    0.6309    1.2847 C   0  0  0  0  0  0  0  0  0  0  0  0
   -3.0523    1.8475    0.8042 C   0  0  0  0  0  0  0  0  0  0  0  0
   -2.1744    1.8680   -0.2812 C   0  0  0  0  0  0  0  0  0  0  0  0
   -1.7865    0.6723   -0.8909 C   0  0  0  0  0  0  0  0  0  0  0  0
   -2.2765   -0.5593   -0.4207 C   0  0  0  0  0  0  0  0  0  0  0  0
   -1.8023   -1.8437   -1.0620 C   0  0  0  0  0  0  0  0  0  0  0  0
   -0.6546   -2.4877   -0.2727 C   0  0  0  0  0  0  0  0  0  0  0  0
    0.5619   -1.6122   -0.2526 C   0  0  0  0  0  0  0  0  0  0  0  0
    0.8828   -0.7016    0.7550 C   0  0  0  0  0  0  0  0  0  0  0  0
    2.0230    0.0471    0.4489 C   0  0  0  0  0  0  0  0  0  0  0  0
    2.5954    1.0411    1.2469 C   0  0  0  0  0  0  0  0  0  0  0  0
    3.7420    1.7062    0.7800 C   0  0  0  0  0  0  0  0  0  0  0  0
    4.2992    1.3761   -0.4711 C   0  0  0  0  0  0  0  0  0  0  0  0
    3.7143    0.3786   -1.2669 C   0  0  0  0  0  0  0  0  0  0  0  0
    2.5801   -0.2682   -0.7821 C   0  0  0  0  0  0  0  0  0  0  0  0
    1.6735   -1.4727   -1.5213 S   0  0  0  0  0  0  0  0  0  0  0  0
   -4.2191    0.6236    2.1299 H   0  0  0  0  0  0  0  0  0  0  0  0
   -3.3507    2.7749    1.2757 H   0  0  0  0  0  0  0  0  0  0  0  0
   -1.7905    2.8111   -0.6481 H   0  0  0  0  0  0  0  0  0  0  0  0
   -1.0940    0.7057   -1.7231 H   0  0  0  0  0  0  0  0  0  0  0  0
   -2.6468   -2.5634   -1.1242 H   0  0  0  0  0  0  0  0  0  0  0  0
   -1.4740   -1.6570   -2.1085 H   0  0  0  0  0  0  0  0  0  0  0  0
   -0.3897   -3.4563   -0.7476 H   0  0  0  0  0  0  0  0  0  0  0  0
   -0.9810   -2.7047    0.7675 H   0  0  0  0  0  0  0  0  0  0  0  0
    0.3016   -0.5752    1.6598 H   0  0  0  0  0  0  0  0  0  0  0  0
    2.1664    1.2979    2.2073 H   0  0  0  0  0  0  0  0  0  0  0  0
    4.1991    2.4783    1.3852 H   0  0  0  0  0  0  0  0  0  0  0  0
    5.1814    1.8957   -0.8218 H   0  0  0  0  0  0  0  0  0  0  0  0
    4.1328    0.1218   -2.2314 H   0  0  0  0  0  0  0  0  0  0  0  0
  1  2  1  0
  2  3  2  0
  3  4  1  0
  4  5  2  0
  5  6  1  0
  6  7  2  0
  7  8  1  0
  8  9  1  0
  9 10  1  0
 10 11  2  0
 11 12  1  0
 12 13  2  0
 13 14  1  0
 14 15  2  0
 15 16  1  0
 16 17  2  0
 17 18  1  0
  7  2  1  0
 18 10  1  0
 17 12  1  0
  3 19  1  0
  4 20  1  0
  5 21  1  0
  6 22  1  0
  8 23  1  0
  8 24  1  0
  9 25  1  0
  9 26  1  0
 11 27  1  0
 13 28  1  0
 14 29  1  0
 15 30  1  0
 16 31  1  0
M  RAD  1   1   3
M  END
$$$$
