
     RDKit          3D

 31 33  0  0  0  0  0  0  0  0999 V2000
    3.2869   -2.6038    0.7139 N   0  0  0  0  0  1  0  0  0  0  0  0
    2.8601   -1.2702    0.9833 C   0  0  0  0  0  0  0  0  0  0  0  0
    2.9610   -0.7713    2.2877 C   0  0  0  0  0  0  0  0  0  0  0  0
    2.5386    0.5278    2.5795 C   0  0  0  0  0  0  0  0  0  0  0  0
    2.0126    1.3354    1.5694 C   0  0  0  0  0  0  0  0  0  0  0  0
    1.9103    0.8473    0.2644 C   0  0  0  0  0  0  0  0  0  0  0  0
    2.3370   -0.4568   -0.0444 C   0  0  0  0  0  0  0  0  0  0  0  0
    2.1685   -0.9823   -1.4520 C   0  0  0  0  0  0  0  0  0  0  0  0
    0.8949   -1.8256   -1.5993 C   0  0  0  0  0  0  0  0  0  0  0  0
   -0.3392   -1.0098   -1.3578 C   0  0  0  0  0  0  0  0  0  0  0  0
   -1.0064   -0.8998   -0.1371 C   0  0  0  0  0  0  0  0  0  0  0  0
   -2.0639    0.0129   -0.1917 C   0  0  0  0  0  0  0  0  0  0  0  0
   -2.9169    0.3504    0.8622 C   0  0  0  0  0  0  0  0  0  0  0  0
   -3.9276    1.3005    0.6365 C   0  0  0  0  0  0  0  0  0  0  0  0
   -4.0727    1.9014   -0.6295 C   0  0  0  0  0  0  0  0  0  0  0  0
   -3.2081    1.5583   -1.6807 C   0  0  0  0  0  0  0  0  0  0  0  0
   -2.2158    0.6127   -1.4336 C   0  0  0  0  0  0  0  0  0  0  0  0
   -1.0446    0.0339   -2.4882 S   0  0  0  0  0  0  0  0  0  0  0  0
    3.3635   -1.3926    3.0779 H   0  0  0  0  0  0  0  0  0  0  0  0
    2.6159    0.9075    3.5901 H   0  0  0  0  0  0  0  0  0  0  0  0
    1.6796    2.3394    1.7986 H   0  0  0  0  0  0  0  0  0  0  0  0
    1.4872    1.4826   -0.5041 H   0  0  0  0  0  0  0  0  0  0  0  0
    3.0477   -1.6044   -1.7256 H   0  0  0  0  0  0  0  0  0  0  0  0
    2.1429   -0.1413   -2.1799 H   0  0  0  0  0  0  0  0  0  0  0  0
    0.8536   -2.2392   -2.6295 H   0  0  0  0  0  0  0  0  0  0  0  0
    0.9228   -2.6857   -0.8957 H   0  0  0  0  0  0  0  0  0  0  0  0
   -0.7227   -1.4436    0.7552 H   0  0  0  0  0  0  0  0  0  0  0  0
   -2.8045   -0.1084    1.8365 H   0  0  0  0  0  0  0  0  0  0  0  0
   -4.5979    1.5734    1.4412 H   0  0  0  0  0  0  0  0  0  0  0  0
   -4.8534    2.6331   -0.7920 H   0  0  0  0  0  0  0  0  0  0  0  0
   -3.3093    2.0183   -2.6550 H   0  0  0  0  0  0  0  0  0  0  0  0
  1  2  1  0
  2  3  2  0
  3  4  1  0
  4  5  2  0
  5  6  1  0
  6  7  2  0
  7  8  1  0
  8  9  1  0
  9 10  1  0
 10 11  2  0
 11 12  1  0
 12 13  2  0
 13 14  1  0
 14 15  2  0
 15 16  1  0
 16 17  2  0
 17 18  1  0
  7  2  1  0
 18 10  1  0
 17 12  1  0
  3 19  1  0
  4 20  1  0
  5 21  1  0
  6 22  1  0
  8 23  1  0
  8 24  1  0
  9 25  1  0
  9 26  1  0
 11 27  1  0
 13 28  1  0
 14 29  1  0
 15 30  1  0
 16 31  1  0
M  RAD  1   1   3
M  END
$$$$
