
     RDKit          3D

 31 33  0  0  0  0  0  0  0  0999 V2000
    3.4581   -2.4793   -1.1544 N   0  0  0  0  0  1  0  0  0  0  0  0
    3.0208   -1.1260   -1.2574 C   0  0  0  0  0  0  0  0  0  0  0  0
    3.2521   -0.4222   -2.4454 C   0  0  0  0  0  0  0  0  0  0  0  0
    2.8235    0.9009   -2.5751 C   0  0  0  0  0  0  0  0  0  0  0  0
    2.1605    1.5277   -1.5184 C   0  0  0  0  0  0  0  0  0  0  0  0
    1.9270    0.8344   -0.3282 C   0  0  0  0  0  0  0  0  0  0  0  0
    2.3588   -0.4961   -0.1819 C   0  0  0  0  0  0  0  0  0  0  0  0
    2.0530   -1.2424    1.0968 C   0  0  0  0  0  0  0  0  0  0  0  0
    0.7972   -2.1146    0.9643 C   0  0  0  0  0  0  0  0  0  0  0  0
   -0.4266   -1.2894    0.7033 C   0  0  0  0  0  0  0  0  0  0  0  0
   -1.0872   -0.5035    1.6478 C   0  0  0  0  0  0  0  0  0  0  0  0
   -2.1451    0.2197    1.0881 C   0  0  0  0  0  0  0  0  0  0  0  0
   -2.9949    1.0968    1.7672 C   0  0  0  0  0  0  0  0  0  0  0  0
   -4.0073    1.7522    1.0456 C   0  0  0  0  0  0  0  0  0  0  0  0
   -4.1579    1.5283   -0.3371 C   0  0  0  0  0  0  0  0  0  0  0  0
   -3.2975    0.6472   -1.0106 C   0  0  0  0  0  0  0  0  0  0  0  0
   -2.3034    0.0078   -0.2741 C   0  0  0  0  0  0  0  0  0  0  0  0
   -1.1399   -1.0735   -0.8170 S   0  0  0  0  0  0  0  0  0  0  0  0
    3.7615   -0.9024   -3.2716 H   0  0  0  0  0  0  0  0  0  0  0  0
    3.0024    1.4396   -3.4967 H   0  0  0  0  0  0  0  0  0  0  0  0
    1.8232    2.5509   -1.6229 H   0  0  0  0  0  0  0  0  0  0  0  0
    1.3998    1.3317    0.4767 H   0  0  0  0  0  0  0  0  0  0  0  0
    1.9225   -0.5291    1.9405 H   0  0  0  0  0  0  0  0  0  0  0  0
    2.9154   -1.8891    1.3669 H   0  0  0  0  0  0  0  0  0  0  0  0
    0.9320   -2.8535    0.1454 H   0  0  0  0  0  0  0  0  0  0  0  0
    0.6518   -2.6841    1.9072 H   0  0  0  0  0  0  0  0  0  0  0  0
   -0.8026   -0.4494    2.6910 H   0  0  0  0  0  0  0  0  0  0  0  0
   -2.8789    1.2718    2.8294 H   0  0  0  0  0  0  0  0  0  0  0  0
   -4.6749    2.4346    1.5555 H   0  0  0  0  0  0  0  0  0  0  0  0
   -4.9399    2.0393   -0.8835 H   0  0  0  0  0  0  0  0  0  0  0  0
   -3.4036    0.4718   -2.0733 H   0  0  0  0  0  0  0  0  0  0  0  0
  1  2  1  0
  2  3  2  0
  3  4  1  0
  4  5  2  0
  5  6  1  0
  6  7  2  0
  7  8  1  0
  8  9  1  0
  9 10  1  0
 10 11  2  0
 11 12  1  0
 12 13  2  0
 13 14  1  0
 14 15  2  0
 15 16  1  0
 16 17  2  0
 17 18  1  0
  7  2  1  0
 18 10  1  0
 17 12  1  0
  3 19  1  0
  4 20  1  0
  5 21  1  0
  6 22  1  0
  8 23  1  0
  8 24  1  0
  9 25  1  0
  9 26  1  0
 11 27  1  0
 13 28  1  0
 14 29  1  0
 15 30  1  0
 16 31  1  0
M  RAD  1   1   3
M  END
$$$$
