
     RDKit          3D

 31 33  0  0  0  0  0  0  0  0999 V2000
   -2.7207    2.2539    1.7505 N   0  0  0  0  0  1  0  0  0  0  0  0
   -3.4343    1.2605    1.0173 C   0  0  0  0  0  0  0  0  0  0  0  0
   -4.8056    1.4319    0.7923 C   0  0  0  0  0  0  0  0  0  0  0  0
   -5.5240    0.4807    0.0639 C   0  0  0  0  0  0  0  0  0  0  0  0
   -4.8747   -0.6447   -0.4475 C   0  0  0  0  0  0  0  0  0  0  0  0
   -3.5064   -0.8245   -0.2279 C   0  0  0  0  0  0  0  0  0  0  0  0
   -2.7747    0.1175    0.5163 C   0  0  0  0  0  0  0  0  0  0  0  0
   -1.2918   -0.0811    0.7128 C   0  0  0  0  0  0  0  0  0  0  0  0
   -0.5032    0.6200   -0.3961 C   0  0  0  0  0  0  0  0  0  0  0  0
    0.9670    0.4258   -0.1970 C   0  0  0  0  0  0  0  0  0  0  0  0
    1.7063   -0.6659   -0.6529 C   0  0  0  0  0  0  0  0  0  0  0  0
    3.0447   -0.6037   -0.2518 C   0  0  0  0  0  0  0  0  0  0  0  0
    4.0392   -1.5394   -0.5486 C   0  0  0  0  0  0  0  0  0  0  0  0
    5.3385   -1.3244   -0.0577 C   0  0  0  0  0  0  0  0  0  0  0  0
    5.6284   -0.1865    0.7206 C   0  0  0  0  0  0  0  0  0  0  0  0
    4.6219    0.7464    1.0153 C   0  0  0  0  0  0  0  0  0  0  0  0
    3.3426    0.5130    0.5162 C   0  0  0  0  0  0  0  0  0  0  0  0
    1.9608    1.4451    0.7187 S   0  0  0  0  0  0  0  0  0  0  0  0
   -5.3152    2.3056    1.1789 H   0  0  0  0  0  0  0  0  0  0  0  0
   -6.5836    0.6186   -0.1085 H   0  0  0  0  0  0  0  0  0  0  0  0
   -5.4315   -1.3770   -1.0178 H   0  0  0  0  0  0  0  0  0  0  0  0
   -3.0162   -1.6983   -0.6396 H   0  0  0  0  0  0  0  0  0  0  0  0
   -0.9816    0.3123    1.7055 H   0  0  0  0  0  0  0  0  0  0  0  0
   -1.0528   -1.1679    0.7083 H   0  0  0  0  0  0  0  0  0  0  0  0
   -0.7297    1.7082   -0.3922 H   0  0  0  0  0  0  0  0  0  0  0  0
   -0.7978    0.2092   -1.3866 H   0  0  0  0  0  0  0  0  0  0  0  0
    1.2885   -1.4722   -1.2425 H   0  0  0  0  0  0  0  0  0  0  0  0
    3.8175   -2.4154   -1.1452 H   0  0  0  0  0  0  0  0  0  0  0  0
    6.1212   -2.0385   -0.2784 H   0  0  0  0  0  0  0  0  0  0  0  0
    6.6321   -0.0312    1.0945 H   0  0  0  0  0  0  0  0  0  0  0  0
    4.8351    1.6220    1.6146 H   0  0  0  0  0  0  0  0  0  0  0  0
  1  2  1  0
  2  3  2  0
  3  4  1  0
  4  5  2  0
  5  6  1  0
  6  7  2  0
  7  8  1  0
  8  9  1  0
  9 10  1  0
 10 11  2  0
 11 12  1  0
 12 13  2  0
 13 14  1  0
 14 15  2  0
 15 16  1  0
 16 17  2  0
 17 18  1  0
  7  2  1  0
 18 10  1  0
 17 12  1  0
  3 19  1  0
  4 20  1  0
  5 21  1  0
  6 22  1  0
  8 23  1  0
  8 24  1  0
  9 25  1  0
  9 26  1  0
 11 27  1  0
 13 28  1  0
 14 29  1  0
 15 30  1  0
 16 31  1  0
M  RAD  1   1   3
M  END
$$$$
