
     RDKit          3D

 31 33  0  0  0  0  0  0  0  0999 V2000
    3.9922   -1.3694   -1.2291 N   0  0  0  0  0  1  0  0  0  0  0  0
    3.3939   -0.3554   -0.4245 C   0  0  0  0  0  0  0  0  0  0  0  0
    3.9149    0.9435   -0.4641 C   0  0  0  0  0  0  0  0  0  0  0  0
    3.3394    1.9569    0.3062 C   0  0  0  0  0  0  0  0  0  0  0  0
    2.2396    1.6778    1.1196 C   0  0  0  0  0  0  0  0  0  0  0  0
    1.7141    0.3842    1.1674 C   0  0  0  0  0  0  0  0  0  0  0  0
    2.2877   -0.6468    0.4018 C   0  0  0  0  0  0  0  0  0  0  0  0
    1.6730   -2.0277    0.4322 C   0  0  0  0  0  0  0  0  0  0  0  0
    0.7235   -2.2580   -0.7513 C   0  0  0  0  0  0  0  0  0  0  0  0
   -0.4454   -1.3202   -0.7156 C   0  0  0  0  0  0  0  0  0  0  0  0
   -1.5300   -1.4144    0.1568 C   0  0  0  0  0  0  0  0  0  0  0  0
   -2.4206   -0.3463    0.0114 C   0  0  0  0  0  0  0  0  0  0  0  0
   -3.5978   -0.1493    0.7382 C   0  0  0  0  0  0  0  0  0  0  0  0
   -4.3762    0.9895    0.4692 C   0  0  0  0  0  0  0  0  0  0  0  0
   -3.9726    1.9143   -0.5140 C   0  0  0  0  0  0  0  0  0  0  0  0
   -2.7871    1.7087   -1.2368 C   0  0  0  0  0  0  0  0  0  0  0  0
   -2.0337    0.5720   -0.9542 C   0  0  0  0  0  0  0  0  0  0  0  0
   -0.5833    0.0873   -1.6465 S   0  0  0  0  0  0  0  0  0  0  0  0
    4.7648    1.1696   -1.0958 H   0  0  0  0  0  0  0  0  0  0  0  0
    3.7443    2.9600    0.2699 H   0  0  0  0  0  0  0  0  0  0  0  0
    1.7909    2.4656    1.7108 H   0  0  0  0  0  0  0  0  0  0  0  0
    0.8526    0.1881    1.7939 H   0  0  0  0  0  0  0  0  0  0  0  0
    2.4767   -2.7947    0.4053 H   0  0  0  0  0  0  0  0  0  0  0  0
    1.1229   -2.1866    1.3861 H   0  0  0  0  0  0  0  0  0  0  0  0
    0.3469   -3.3026   -0.7144 H   0  0  0  0  0  0  0  0  0  0  0  0
    1.2729   -2.1348   -1.7093 H   0  0  0  0  0  0  0  0  0  0  0  0
   -1.6578   -2.2154    0.8738 H   0  0  0  0  0  0  0  0  0  0  0  0
   -3.9080   -0.8579    1.4959 H   0  0  0  0  0  0  0  0  0  0  0  0
   -5.2912    1.1577    1.0222 H   0  0  0  0  0  0  0  0  0  0  0  0
   -4.5788    2.7887   -0.7121 H   0  0  0  0  0  0  0  0  0  0  0  0
   -2.4677    2.4156   -1.9915 H   0  0  0  0  0  0  0  0  0  0  0  0
  1  2  1  0
  2  3  2  0
  3  4  1  0
  4  5  2  0
  5  6  1  0
  6  7  2  0
  7  8  1  0
  8  9  1  0
  9 10  1  0
 10 11  2  0
 11 12  1  0
 12 13  2  0
 13 14  1  0
 14 15  2  0
 15 16  1  0
 16 17  2  0
 17 18  1  0
  7  2  1  0
 18 10  1  0
 17 12  1  0
  3 19  1  0
  4 20  1  0
  5 21  1  0
  6 22  1  0
  8 23  1  0
  8 24  1  0
  9 25  1  0
  9 26  1  0
 11 27  1  0
 13 28  1  0
 14 29  1  0
 15 30  1  0
 16 31  1  0
M  RAD  1   1   3
M  END
$$$$
