 xtb: 6.7.1 (edcfbbe)
          07312615233D

245267  0     0  0            999 V2000
    0.1574   -1.6755   -1.0495 N   0  0  0  0  0  0  0  0  0  0  0  0
   -0.0113   -1.0010    1.7138 N   0  0  0  0  0  0  0  0  0  0  0  0
   -0.5061   -0.9186   -3.3199 C   0  0  0  0  0  0  0  0  0  0  0  0
   -0.0306   -1.8732   -2.3937 C   0  0  0  0  0  0  0  0  0  0  0  0
    0.3892   -3.2140   -2.7554 C   0  0  0  0  0  0  0  0  0  0  0  0
    0.3369   -3.6296   -3.7627 H   0  0  0  0  0  0  0  0  0  0  0  0
    0.8572   -3.8019   -1.6139 C   0  0  0  0  0  0  0  0  0  0  0  0
    1.2689   -4.8041   -1.4878 H   0  0  0  0  0  0  0  0  0  0  0  0
    0.6770   -2.8431   -0.5413 C   0  0  0  0  0  0  0  0  0  0  0  0
    0.9065   -3.1290    0.8196 C   0  0  0  0  0  0  0  0  0  0  0  0
    0.5144   -2.2605    1.8577 C   0  0  0  0  0  0  0  0  0  0  0  0
    0.4890   -2.6384    3.2583 C   0  0  0  0  0  0  0  0  0  0  0  0
    0.8504   -3.5916    3.6472 H   0  0  0  0  0  0  0  0  0  0  0  0
   -0.1011   -1.6116    3.9378 C   0  0  0  0  0  0  0  0  0  0  0  0
   -0.3179   -1.5341    5.0041 H   0  0  0  0  0  0  0  0  0  0  0  0
   -0.3986   -0.5803    2.9611 C   0  0  0  0  0  0  0  0  0  0  0  0
    1.4840   -4.4693    1.1902 C   0  0  0  0  0  0  0  0  0  0  0  0
    2.8397   -4.5956    1.5760 C   0  0  0  0  0  0  0  0  0  0  0  0
    3.3875   -5.8425    1.9278 C   0  0  0  0  0  0  0  0  0  0  0  0
    2.5756   -6.9797    1.8862 C   0  0  0  0  0  0  0  0  0  0  0  0
    3.0018   -7.9567    2.1496 H   0  0  0  0  0  0  0  0  0  0  0  0
    1.2320   -6.8951    1.5120 C   0  0  0  0  0  0  0  0  0  0  0  0
    0.6886   -5.6405    1.1760 C   0  0  0  0  0  0  0  0  0  0  0  0
   -0.8279    1.6638    1.0064 N   0  0  0  0  0  0  0  0  0  0  0  0
   -0.6104    0.9995   -1.7420 N   0  0  0  0  0  0  0  0  0  0  0  0
   -0.9703    0.6684    3.2810 C   0  0  0  0  0  0  0  0  0  0  0  0
   -1.1048    1.7207    2.3483 C   0  0  0  0  0  0  0  0  0  0  0  0
   -1.4918    3.0704    2.7070 C   0  0  0  0  0  0  0  0  0  0  0  0
   -1.7845    3.3836    3.7100 H   0  0  0  0  0  0  0  0  0  0  0  0
   -1.3965    3.8259    1.5711 C   0  0  0  0  0  0  0  0  0  0  0  0
   -1.6025    4.8892    1.4453 H   0  0  0  0  0  0  0  0  0  0  0  0
   -1.0163    2.9286    0.4999 C   0  0  0  0  0  0  0  0  0  0  0  0
   -0.9437    3.2965   -0.8572 C   0  0  0  0  0  0  0  0  0  0  0  0
   -0.8342    2.3456   -1.8900 C   0  0  0  0  0  0  0  0  0  0  0  0
   -1.0858    2.6469   -3.2854 C   0  0  0  0  0  0  0  0  0  0  0  0
   -1.2915    3.6442   -3.6758 H   0  0  0  0  0  0  0  0  0  0  0  0
   -1.0639    1.4587   -3.9584 C   0  0  0  0  0  0  0  0  0  0  0  0
   -1.2441    1.2729   -5.0181 H   0  0  0  0  0  0  0  0  0  0  0  0
   -0.7328    0.4332   -2.9869 C   0  0  0  0  0  0  0  0  0  0  0  0
   -1.0557    4.7463   -1.2429 C   0  0  0  0  0  0  0  0  0  0  0  0
    0.1055    5.4588   -1.6309 C   0  0  0  0  0  0  0  0  0  0  0  0
    0.0319    6.7995   -2.0505 C   0  0  0  0  0  0  0  0  0  0  0  0
   -1.2088    7.4442   -2.0554 C   0  0  0  0  0  0  0  0  0  0  0  0
   -1.2701    8.4932   -2.3736 H   0  0  0  0  0  0  0  0  0  0  0  0
   -2.3735    6.7763   -1.6656 C   0  0  0  0  0  0  0  0  0  0  0  0
   -2.2963    5.4257   -1.2766 C   0  0  0  0  0  0  0  0  0  0  0  0
   -0.2276    0.0290   -0.0187 Fe  0  0  0  0  0  0  0  0  0  0  0  0
   -2.4424   -0.6402    0.0250 Cl  0  0  0  0  0  0  0  0  0  0  0  0
   -1.5165    0.8725    4.6730 C   0  0  0  0  0  0  0  0  0  0  0  0
   -0.7281    1.4287    5.7156 C   0  0  0  0  0  0  0  0  0  0  0  0
   -2.8614    0.4925    4.9415 C   0  0  0  0  0  0  0  0  0  0  0  0
   -1.2722    1.6076    7.0034 C   0  0  0  0  0  0  0  0  0  0  0  0
    0.6051    1.8034    5.4061 N   0  0  0  0  0  0  0  0  0  0  0  0
   -3.4019    0.6962    6.2295 C   0  0  0  0  0  0  0  0  0  0  0  0
   -3.6090   -0.1109    3.9024 N   0  0  0  0  0  0  0  0  0  0  0  0
   -0.6438    2.0237    7.7955 H   0  0  0  0  0  0  0  0  0  0  0  0
   -2.6022    1.2444    7.2357 C   0  0  0  0  0  0  0  0  0  0  0  0
    1.5996    2.2328    6.2559 C   0  0  0  0  0  0  0  0  0  0  0  0
    0.8492    1.7063    4.4189 H   0  0  0  0  0  0  0  0  0  0  0  0
   -4.4432    0.4194    6.4127 H   0  0  0  0  0  0  0  0  0  0  0  0
   -4.9319   -0.5071    3.9222 C   0  0  0  0  0  0  0  0  0  0  0  0
   -3.1020   -0.2775    3.0279 H   0  0  0  0  0  0  0  0  0  0  0  0
   -3.0285    1.3919    8.2364 H   0  0  0  0  0  0  0  0  0  0  0  0
    1.4888    2.3404    7.4723 O   0  0  0  0  0  0  0  0  0  0  0  0
    2.9000    2.5776    5.5607 C   0  0  0  0  0  0  0  0  0  0  0  0
   -5.7079   -0.2848    4.8466 O   0  0  0  0  0  0  0  0  0  0  0  0
   -5.3682   -1.2682    2.6933 C   0  0  0  0  0  0  0  0  0  0  0  0
    4.1856    2.2152    6.2595 C   0  0  0  0  0  0  0  0  0  0  0  0
    2.9216    2.5780    4.4654 H   0  0  0  0  0  0  0  0  0  0  0  0
    3.7420    3.6581    6.2498 C   0  0  0  0  0  0  0  0  0  0  0  0
   -6.7434   -0.9929    2.1379 C   0  0  0  0  0  0  0  0  0  0  0  0
   -4.6013   -1.5683    1.9700 H   0  0  0  0  0  0  0  0  0  0  0  0
   -6.5181   -2.2552    2.9359 C   0  0  0  0  0  0  0  0  0  0  0  0
    4.1038    1.6923    7.2155 H   0  0  0  0  0  0  0  0  0  0  0  0
    5.0347    1.9494    5.6267 H   0  0  0  0  0  0  0  0  0  0  0  0
    3.3284    4.0524    7.1812 H   0  0  0  0  0  0  0  0  0  0  0  0
    4.4779    4.6359    5.3901 C   0  0  0  0  0  0  0  0  0  0  0  0
   -7.3325   -0.2171    2.6353 H   0  0  0  0  0  0  0  0  0  0  0  0
   -6.8610   -1.0840    1.0546 H   0  0  0  0  0  0  0  0  0  0  0  0
   -6.9079   -2.2658    3.9585 H   0  0  0  0  0  0  0  0  0  0  0  0
   -6.4948   -3.5758    2.2423 C   0  0  0  0  0  0  0  0  0  0  0  0
    4.5705    5.8336    5.9926 O   0  0  0  0  0  0  0  0  0  0  0  0
    4.9490    4.3831    4.2979 O   0  0  0  0  0  0  0  0  0  0  0  0
   -7.0670   -4.5299    3.0095 O   0  0  0  0  0  0  0  0  0  0  0  0
   -6.0390   -3.7850    1.1360 O   0  0  0  0  0  0  0  0  0  0  0  0
    5.2746    6.9110    5.3061 C   0  0  0  0  0  0  0  0  0  0  0  0
   -7.1496   -5.8813    2.4760 C   0  0  0  0  0  0  0  0  0  0  0  0
    4.2561    7.7713    4.5455 C   0  0  0  0  0  0  0  0  0  0  0  0
    6.0529    7.6817    6.3713 C   0  0  0  0  0  0  0  0  0  0  0  0
    5.9622    6.4346    4.5847 H   0  0  0  0  0  0  0  0  0  0  0  0
   -7.0935   -6.8299    3.6745 C   0  0  0  0  0  0  0  0  0  0  0  0
   -8.4277   -6.0191    1.6412 C   0  0  0  0  0  0  0  0  0  0  0  0
   -6.2682   -6.0264    1.8228 H   0  0  0  0  0  0  0  0  0  0  0  0
    3.7319    7.1666    3.7874 H   0  0  0  0  0  0  0  0  0  0  0  0
    3.5164    8.1928    5.2390 H   0  0  0  0  0  0  0  0  0  0  0  0
    4.7699    8.5998    4.0389 H   0  0  0  0  0  0  0  0  0  0  0  0
    6.7552    7.0210    6.8956 H   0  0  0  0  0  0  0  0  0  0  0  0
    6.6294    8.4961    5.9126 H   0  0  0  0  0  0  0  0  0  0  0  0
    5.3747    8.1165    7.1167 H   0  0  0  0  0  0  0  0  0  0  0  0
   -6.1652   -6.6792    4.2407 H   0  0  0  0  0  0  0  0  0  0  0  0
   -7.9470   -6.6592    4.3479 H   0  0  0  0  0  0  0  0  0  0  0  0
   -7.1338   -7.8745    3.3367 H   0  0  0  0  0  0  0  0  0  0  0  0
   -8.4094   -5.3158    0.7976 H   0  0  0  0  0  0  0  0  0  0  0  0
   -8.5156   -7.0395    1.2428 H   0  0  0  0  0  0  0  0  0  0  0  0
   -9.3178   -5.8173    2.2564 H   0  0  0  0  0  0  0  0  0  0  0  0
   -0.7758   -1.3917   -4.7265 C   0  0  0  0  0  0  0  0  0  0  0  0
    0.1522   -1.1675   -5.7795 C   0  0  0  0  0  0  0  0  0  0  0  0
   -1.9743   -2.1079   -4.9965 C   0  0  0  0  0  0  0  0  0  0  0  0
   -0.0806   -1.7061   -7.0606 C   0  0  0  0  0  0  0  0  0  0  0  0
    1.2894   -0.3711   -5.4910 N   0  0  0  0  0  0  0  0  0  0  0  0
   -2.1954   -2.6506   -6.2802 C   0  0  0  0  0  0  0  0  0  0  0  0
   -2.9308   -2.2076   -3.9592 N   0  0  0  0  0  0  0  0  0  0  0  0
    0.6504   -1.5273   -7.8542 H   0  0  0  0  0  0  0  0  0  0  0  0
   -1.2446   -2.4490   -7.2851 C   0  0  0  0  0  0  0  0  0  0  0  0
    2.1999    0.1858   -6.3627 C   0  0  0  0  0  0  0  0  0  0  0  0
    1.3276   -0.0413   -4.5251 H   0  0  0  0  0  0  0  0  0  0  0  0
   -3.1111   -3.2198   -6.4614 H   0  0  0  0  0  0  0  0  0  0  0  0
   -4.1500   -2.8551   -3.9716 C   0  0  0  0  0  0  0  0  0  0  0  0
   -2.7030   -1.6912   -3.1053 H   0  0  0  0  0  0  0  0  0  0  0  0
   -1.4216   -2.8752   -8.2812 H   0  0  0  0  0  0  0  0  0  0  0  0
    2.2784   -0.0704   -7.5584 O   0  0  0  0  0  0  0  0  0  0  0  0
    3.1011    1.2162   -5.7164 C   0  0  0  0  0  0  0  0  0  0  0  0
   -4.5416   -3.5808   -4.8801 O   0  0  0  0  0  0  0  0  0  0  0  0
   -4.9996   -2.5774   -2.7553 C   0  0  0  0  0  0  0  0  0  0  0  0
    3.3743    2.4699   -6.5105 C   0  0  0  0  0  0  0  0  0  0  0  0
    3.0675    1.3249   -4.6267 H   0  0  0  0  0  0  0  0  0  0  0  0
    4.4696    1.4406   -6.3595 C   0  0  0  0  0  0  0  0  0  0  0  0
   -5.8673   -3.6859   -2.2173 C   0  0  0  0  0  0  0  0  0  0  0  0
   -4.6320   -1.8490   -2.0230 H   0  0  0  0  0  0  0  0  0  0  0  0
   -6.5135   -2.5809   -3.0172 C   0  0  0  0  0  0  0  0  0  0  0  0
    2.9103    2.5405   -7.4980 H   0  0  0  0  0  0  0  0  0  0  0  0
    3.4816    3.4027   -5.9519 H   0  0  0  0  0  0  0  0  0  0  0  0
    4.7000    0.8238   -7.2321 H   0  0  0  0  0  0  0  0  0  0  0  0
    5.6146    1.7681   -5.4521 C   0  0  0  0  0  0  0  0  0  0  0  0
   -5.7987   -4.6537   -2.7210 H   0  0  0  0  0  0  0  0  0  0  0  0
   -6.0197   -3.6995   -1.1348 H   0  0  0  0  0  0  0  0  0  0  0  0
   -6.8050   -2.8208   -4.0444 H   0  0  0  0  0  0  0  0  0  0  0  0
   -7.3560   -1.5561   -2.3329 C   0  0  0  0  0  0  0  0  0  0  0  0
    6.7766    1.3299   -5.9639 O   0  0  0  0  0  0  0  0  0  0  0  0
    5.5096    2.3708   -4.4005 O   0  0  0  0  0  0  0  0  0  0  0  0
   -8.3805   -1.1698   -3.1235 O   0  0  0  0  0  0  0  0  0  0  0  0
   -7.1691   -1.1233   -1.2135 O   0  0  0  0  0  0  0  0  0  0  0  0
    8.0060    1.5873   -5.2225 C   0  0  0  0  0  0  0  0  0  0  0  0
   -9.3087   -0.1754   -2.6049 C   0  0  0  0  0  0  0  0  0  0  0  0
    8.9289    0.3937   -5.4733 C   0  0  0  0  0  0  0  0  0  0  0  0
    8.5913    2.9273   -5.6768 C   0  0  0  0  0  0  0  0  0  0  0  0
    7.7294    1.6496   -4.1533 H   0  0  0  0  0  0  0  0  0  0  0  0
   -8.7733    1.2305   -2.9048 C   0  0  0  0  0  0  0  0  0  0  0  0
  -10.6652   -0.4664   -3.2459 C   0  0  0  0  0  0  0  0  0  0  0  0
   -9.3546   -0.3187   -1.5100 H   0  0  0  0  0  0  0  0  0  0  0  0
    8.4464   -0.5368   -5.1467 H   0  0  0  0  0  0  0  0  0  0  0  0
    9.1738    0.3076   -6.5429 H   0  0  0  0  0  0  0  0  0  0  0  0
    9.8696    0.5195   -4.9201 H   0  0  0  0  0  0  0  0  0  0  0  0
    7.8864    3.7431   -5.4721 H   0  0  0  0  0  0  0  0  0  0  0  0
    9.5267    3.1375   -5.1401 H   0  0  0  0  0  0  0  0  0  0  0  0
    8.8152    2.9091   -6.7546 H   0  0  0  0  0  0  0  0  0  0  0  0
   -7.7997    1.3826   -2.4115 H   0  0  0  0  0  0  0  0  0  0  0  0
   -8.6523    1.3738   -3.9875 H   0  0  0  0  0  0  0  0  0  0  0  0
   -9.4751    1.9896   -2.5322 H   0  0  0  0  0  0  0  0  0  0  0  0
  -10.9951   -1.4887   -3.0129 H   0  0  0  0  0  0  0  0  0  0  0  0
  -11.4251    0.2326   -2.8717 H   0  0  0  0  0  0  0  0  0  0  0  0
  -10.6134   -0.3630   -4.3377 H   0  0  0  0  0  0  0  0  0  0  0  0
    4.4399   -5.9165    2.2261 H   0  0  0  0  0  0  0  0  0  0  0  0
    0.6038   -7.7926    1.4757 H   0  0  0  0  0  0  0  0  0  0  0  0
    0.9364    7.3252   -2.3773 H   0  0  0  0  0  0  0  0  0  0  0  0
   -3.3410    7.2922   -1.6657 H   0  0  0  0  0  0  0  0  0  0  0  0
    3.5686   -3.4275    1.5877 O   0  0  0  0  0  0  0  0  0  0  0  0
   -0.6146   -5.4698    0.7718 O   0  0  0  0  0  0  0  0  0  0  0  0
    1.2694    4.7224   -1.6388 O   0  0  0  0  0  0  0  0  0  0  0  0
   -3.3866    4.7002   -0.8557 O   0  0  0  0  0  0  0  0  0  0  0  0
    4.9155   -3.4466    1.9498 C   0  0  0  0  0  0  0  0  0  0  0  0
    5.8976   -3.7092    0.9840 C   0  0  0  0  0  0  0  0  0  0  0  0
    5.2741   -3.1229    3.2650 C   0  0  0  0  0  0  0  0  0  0  0  0
    7.2496   -3.6547    1.3467 C   0  0  0  0  0  0  0  0  0  0  0  0
    5.5926   -3.9487   -0.0400 H   0  0  0  0  0  0  0  0  0  0  0  0
    6.6297   -3.0697    3.6154 C   0  0  0  0  0  0  0  0  0  0  0  0
    4.4838   -2.9121    3.9927 H   0  0  0  0  0  0  0  0  0  0  0  0
    7.6192   -3.3370    2.6603 C   0  0  0  0  0  0  0  0  0  0  0  0
    8.0208   -3.8590    0.5955 H   0  0  0  0  0  0  0  0  0  0  0  0
    6.9157   -2.8169    4.6425 H   0  0  0  0  0  0  0  0  0  0  0  0
    8.6806   -3.2958    2.9391 H   0  0  0  0  0  0  0  0  0  0  0  0
   -1.5675   -6.4653    0.9622 C   0  0  0  0  0  0  0  0  0  0  0  0
   -1.9062   -6.9192    2.2451 C   0  0  0  0  0  0  0  0  0  0  0  0
   -2.2441   -6.9478   -0.1666 C   0  0  0  0  0  0  0  0  0  0  0  0
   -2.9153   -7.8791    2.3898 C   0  0  0  0  0  0  0  0  0  0  0  0
   -1.3808   -6.5144    3.1168 H   0  0  0  0  0  0  0  0  0  0  0  0
   -3.2573   -7.9013   -0.0073 C   0  0  0  0  0  0  0  0  0  0  0  0
   -1.9688   -6.5594   -1.1524 H   0  0  0  0  0  0  0  0  0  0  0  0
   -3.5916   -8.3749    1.2677 C   0  0  0  0  0  0  0  0  0  0  0  0
   -3.1800   -8.2392    3.3901 H   0  0  0  0  0  0  0  0  0  0  0  0
   -3.7884   -8.2786   -0.8879 H   0  0  0  0  0  0  0  0  0  0  0  0
   -4.3810   -9.1286    1.3881 H   0  0  0  0  0  0  0  0  0  0  0  0
    2.5346    5.2870   -1.5644 C   0  0  0  0  0  0  0  0  0  0  0  0
    2.8525    6.3501   -0.7039 C   0  0  0  0  0  0  0  0  0  0  0  0
    3.5389    4.6727   -2.3301 C   0  0  0  0  0  0  0  0  0  0  0  0
    4.1751    6.8069   -0.6347 C   0  0  0  0  0  0  0  0  0  0  0  0
    2.0701    6.8114   -0.0914 H   0  0  0  0  0  0  0  0  0  0  0  0
    4.8575    5.1308   -2.2441 C   0  0  0  0  0  0  0  0  0  0  0  0
    3.2790    3.8313   -2.9809 H   0  0  0  0  0  0  0  0  0  0  0  0
    5.1805    6.2045   -1.4023 C   0  0  0  0  0  0  0  0  0  0  0  0
    4.4222    7.6408    0.0344 H   0  0  0  0  0  0  0  0  0  0  0  0
    5.6250    4.6302   -2.8450 H   0  0  0  0  0  0  0  0  0  0  0  0
    6.2135    6.5707   -1.3392 H   0  0  0  0  0  0  0  0  0  0  0  0
   -4.6852    5.0812   -1.1734 C   0  0  0  0  0  0  0  0  0  0  0  0
   -5.0921    5.2899   -2.4992 C   0  0  0  0  0  0  0  0  0  0  0  0
   -5.6110    5.1645   -0.1234 C   0  0  0  0  0  0  0  0  0  0  0  0
   -6.4307    5.6030   -2.7657 C   0  0  0  0  0  0  0  0  0  0  0  0
   -4.3618    5.1993   -3.3101 H   0  0  0  0  0  0  0  0  0  0  0  0
   -6.9481    5.4709   -0.4048 C   0  0  0  0  0  0  0  0  0  0  0  0
   -5.2665    4.9786    0.8987 H   0  0  0  0  0  0  0  0  0  0  0  0
   -7.3618    5.6972   -1.7235 C   0  0  0  0  0  0  0  0  0  0  0  0
   -6.7516    5.7665   -3.8003 H   0  0  0  0  0  0  0  0  0  0  0  0
   -7.6729    5.5348    0.4139 H   0  0  0  0  0  0  0  0  0  0  0  0
   -8.4102    5.9417   -1.9401 H   0  0  0  0  0  0  0  0  0  0  0  0
    1.3020    0.6006    0.0617 N   0  0  0  0  0  0  0  0  0  0  0  0
    2.3748    1.0942    0.5981 C   0  0  0  0  0  0  0  0  0  0  0  0
    2.3495    2.3845    1.2047 C   0  0  0  0  0  0  0  0  0  0  0  0
    3.4531    2.8720    1.8545 C   0  0  0  0  0  0  0  0  0  0  0  0
    4.6212    2.1225    1.9409 C   0  0  0  0  0  0  0  0  0  0  0  0
    4.6869    0.8926    1.3016 C   0  0  0  0  0  0  0  0  0  0  0  0
    3.6120    0.3762    0.6104 C   0  0  0  0  0  0  0  0  0  0  0  0
    3.7369   -0.8518   -0.2300 C   0  0  0  0  0  0  0  0  0  0  0  0
    4.0388   -0.4435   -1.6917 C   0  0  0  0  0  0  0  0  0  0  0  0
    5.3292    0.2934   -1.7521 C   0  0  0  0  0  0  0  0  0  0  0  0
    5.6119    1.6005   -1.5266 C   0  0  0  0  0  0  0  0  0  0  0  0
    7.0325    1.7250   -1.5865 C   0  0  0  0  0  0  0  0  0  0  0  0
    7.9402    2.7726   -1.4497 C   0  0  0  0  0  0  0  0  0  0  0  0
    9.2840    2.4927   -1.5762 C   0  0  0  0  0  0  0  0  0  0  0  0
    9.7373    1.1978   -1.8332 C   0  0  0  0  0  0  0  0  0  0  0  0
    8.8584    0.1405   -1.9737 C   0  0  0  0  0  0  0  0  0  0  0  0
    7.5083    0.4234   -1.8471 C   0  0  0  0  0  0  0  0  0  0  0  0
    6.4670   -0.4412   -1.9472 O   0  0  0  0  0  0  0  0  0  0  0  0
    1.4406    2.9582    1.1324 H   0  0  0  0  0  0  0  0  0  0  0  0
    3.4201    3.8501    2.3106 H   0  0  0  0  0  0  0  0  0  0  0  0
    5.4668    2.5164    2.4800 H   0  0  0  0  0  0  0  0  0  0  0  0
    5.6036    0.3217    1.3326 H   0  0  0  0  0  0  0  0  0  0  0  0
    2.8060   -1.4193   -0.2074 H   0  0  0  0  0  0  0  0  0  0  0  0
    4.5508   -1.4754    0.1391 H   0  0  0  0  0  0  0  0  0  0  0  0
    4.0987   -1.3390   -2.3115 H   0  0  0  0  0  0  0  0  0  0  0  0
    3.2303    0.1945   -2.0510 H   0  0  0  0  0  0  0  0  0  0  0  0
    4.9068    2.3862   -1.3520 H   0  0  0  0  0  0  0  0  0  0  0  0
    7.5885    3.7720   -1.2487 H   0  0  0  0  0  0  0  0  0  0  0  0
   10.0066    3.2890   -1.4753 H   0  0  0  0  0  0  0  0  0  0  0  0
   10.7980    1.0187   -1.9238 H   0  0  0  0  0  0  0  0  0  0  0  0
    9.2017   -0.8612   -2.1750 H   0  0  0  0  0  0  0  0  0  0  0  0
  1  4  4  0  0  0  0
  3  4  4  0  0  0  0
  4  5  1  0  0  0  0
  5  6  1  0  0  0  0
  5  7  2  0  0  0  0
  7  8  1  0  0  0  0
  1  9  4  0  0  0  0
  7  9  1  0  0  0  0
  9 10  4  0  0  0  0
  2 11  4  0  0  0  0
 10 11  4  0  0  0  0
 11 12  1  0  0  0  0
 12 13  1  0  0  0  0
 12 14  2  0  0  0  0
 14 15  1  0  0  0  0
  2 16  4  0  0  0  0
 14 16  1  0  0  0  0
 10 17  1  0  0  0  0
 17 18  4  0  0  0  0
 18 19  4  0  0  0  0
 19 20  4  0  0  0  0
 20 21  1  0  0  0  0
 20 22  4  0  0  0  0
 17 23  4  0  0  0  0
 22 23  4  0  0  0  0
 16 26  4  0  0  0  0
 24 27  4  0  0  0  0
 26 27  4  0  0  0  0
 27 28  1  0  0  0  0
 28 29  1  0  0  0  0
 28 30  2  0  0  0  0
 30 31  1  0  0  0  0
 24 32  4  0  0  0  0
 30 32  1  0  0  0  0
 32 33  4  0  0  0  0
 25 34  4  0  0  0  0
 33 34  4  0  0  0  0
 34 35  1  0  0  0  0
 35 36  1  0  0  0  0
 35 37  2  0  0  0  0
 37 38  1  0  0  0  0
  3 39  4  0  0  0  0
 25 39  4  0  0  0  0
 37 39  1  0  0  0  0
 33 40  1  0  0  0  0
 40 41  4  0  0  0  0
 41 42  4  0  0  0  0
 42 43  4  0  0  0  0
 43 44  1  0  0  0  0
 43 45  4  0  0  0  0
 40 46  4  0  0  0  0
 45 46  4  0  0  0  0
  1 47  1  0  0  0  0
  2 47  1  0  0  0  0
 24 47  1  0  0  0  0
 25 47  1  0  0  0  0
 47 48  1  0  0  0  0
 26 49  1  0  0  0  0
 49 50  4  0  0  0  0
 49 51  4  0  0  0  0
 50 52  4  0  0  0  0
 50 53  1  0  0  0  0
 51 54  4  0  0  0  0
 51 55  1  0  0  0  0
 52 56  1  0  0  0  0
 52 57  4  0  0  0  0
 54 57  4  0  0  0  0
 53 58  4  0  0  0  0
 53 59  1  0  0  0  0
 54 60  1  0  0  0  0
 55 61  4  0  0  0  0
 55 62  1  0  0  0  0
 57 63  1  0  0  0  0
 58 64  2  0  0  0  0
 58 65  1  0  0  0  0
 61 66  2  0  0  0  0
 61 67  1  0  0  0  0
 65 68  1  0  0  0  0
 65 69  1  0  0  0  0
 65 70  1  0  0  0  0
 68 70  1  0  0  0  0
 67 71  1  0  0  0  0
 67 72  1  0  0  0  0
 67 73  1  0  0  0  0
 71 73  1  0  0  0  0
 68 74  1  0  0  0  0
 68 75  1  0  0  0  0
 70 76  1  0  0  0  0
 70 77  1  0  0  0  0
 71 78  1  0  0  0  0
 71 79  1  0  0  0  0
 73 80  1  0  0  0  0
 73 81  1  0  0  0  0
 77 82  1  0  0  0  0
 77 83  2  0  0  0  0
 81 84  1  0  0  0  0
 81 85  2  0  0  0  0
 82 86  1  0  0  0  0
 84 87  1  0  0  0  0
 86 88  1  0  0  0  0
 86 89  1  0  0  0  0
 86 90  1  0  0  0  0
 87 91  1  0  0  0  0
 87 92  1  0  0  0  0
 87 93  1  0  0  0  0
 88 94  1  0  0  0  0
 88 95  1  0  0  0  0
 88 96  1  0  0  0  0
 89 97  1  0  0  0  0
 89 98  1  0  0  0  0
 89 99  1  0  0  0  0
 91100  1  0  0  0  0
 91101  1  0  0  0  0
 91102  1  0  0  0  0
 92103  1  0  0  0  0
 92104  1  0  0  0  0
 92105  1  0  0  0  0
  3106  1  0  0  0  0
106107  4  0  0  0  0
106108  4  0  0  0  0
107109  4  0  0  0  0
107110  1  0  0  0  0
108111  4  0  0  0  0
108112  1  0  0  0  0
109113  1  0  0  0  0
109114  4  0  0  0  0
111114  4  0  0  0  0
110115  4  0  0  0  0
110116  1  0  0  0  0
111117  1  0  0  0  0
112118  4  0  0  0  0
112119  1  0  0  0  0
114120  1  0  0  0  0
115121  2  0  0  0  0
115122  1  0  0  0  0
118123  2  0  0  0  0
118124  1  0  0  0  0
122125  1  0  0  0  0
122126  1  0  0  0  0
122127  1  0  0  0  0
125127  1  0  0  0  0
124128  1  0  0  0  0
124129  1  0  0  0  0
124130  1  0  0  0  0
128130  1  0  0  0  0
125131  1  0  0  0  0
125132  1  0  0  0  0
127133  1  0  0  0  0
127134  1  0  0  0  0
128135  1  0  0  0  0
128136  1  0  0  0  0
130137  1  0  0  0  0
130138  1  0  0  0  0
134139  1  0  0  0  0
134140  2  0  0  0  0
138141  1  0  0  0  0
138142  2  0  0  0  0
139143  1  0  0  0  0
141144  1  0  0  0  0
143145  1  0  0  0  0
143146  1  0  0  0  0
143147  1  0  0  0  0
144148  1  0  0  0  0
144149  1  0  0  0  0
144150  1  0  0  0  0
145151  1  0  0  0  0
145152  1  0  0  0  0
145153  1  0  0  0  0
146154  1  0  0  0  0
146155  1  0  0  0  0
146156  1  0  0  0  0
148157  1  0  0  0  0
148158  1  0  0  0  0
148159  1  0  0  0  0
149160  1  0  0  0  0
149161  1  0  0  0  0
149162  1  0  0  0  0
 19163  1  0  0  0  0
 22164  1  0  0  0  0
 42165  1  0  0  0  0
 45166  1  0  0  0  0
 18167  1  0  0  0  0
 23168  1  0  0  0  0
 41169  1  0  0  0  0
 46170  1  0  0  0  0
167171  1  0  0  0  0
171172  4  0  0  0  0
171173  4  0  0  0  0
172174  4  0  0  0  0
172175  1  0  0  0  0
173176  4  0  0  0  0
173177  1  0  0  0  0
174178  4  0  0  0  0
176178  4  0  0  0  0
174179  1  0  0  0  0
176180  1  0  0  0  0
178181  1  0  0  0  0
168182  1  0  0  0  0
182183  4  0  0  0  0
182184  4  0  0  0  0
183185  4  0  0  0  0
183186  1  0  0  0  0
184187  4  0  0  0  0
184188  1  0  0  0  0
185189  4  0  0  0  0
187189  4  0  0  0  0
185190  1  0  0  0  0
187191  1  0  0  0  0
189192  1  0  0  0  0
169193  1  0  0  0  0
193194  4  0  0  0  0
193195  4  0  0  0  0
194196  4  0  0  0  0
194197  1  0  0  0  0
195198  4  0  0  0  0
195199  1  0  0  0  0
196200  4  0  0  0  0
198200  4  0  0  0  0
196201  1  0  0  0  0
198202  1  0  0  0  0
200203  1  0  0  0  0
170204  1  0  0  0  0
204205  4  0  0  0  0
204206  4  0  0  0  0
205207  4  0  0  0  0
205208  1  0  0  0  0
206209  4  0  0  0  0
206210  1  0  0  0  0
207211  4  0  0  0  0
209211  4  0  0  0  0
207212  1  0  0  0  0
209213  1  0  0  0  0
211214  1  0  0  0  0
 47215  2  0  0  0  0
215216  4  0  0  0  0
216217  1  0  0  0  0
217218  2  0  0  0  0
218219  4  0  0  0  0
219220  4  0  0  0  0
216221  1  0  0  0  0
220221  4  0  0  0  0
221222  1  0  0  0  0
222223  1  0  0  0  0
223224  1  0  0  0  0
224225  2  0  0  0  0
225226  1  0  0  0  0
226227  4  0  0  0  0
227228  4  0  0  0  0
228229  4  0  0  0  0
229230  4  0  0  0  0
226231  4  0  0  0  0
230231  4  0  0  0  0
224232  1  0  0  0  0
231232  1  0  0  0  0
217233  1  0  0  0  0
218234  1  0  0  0  0
219235  1  0  0  0  0
220236  1  0  0  0  0
222237  1  0  0  0  0
222238  1  0  0  0  0
223239  1  0  0  0  0
223240  1  0  0  0  0
225241  1  0  0  0  0
227242  1  0  0  0  0
228243  1  0  0  0  0
229244  1  0  0  0  0
230245  1  0  0  0  0
M  END
