
     RDKit          3D

 43 44  0  0  0  0  0  0  0  0999 V2000
    3.4226    1.0092   -0.1173 C   0  0  0  0  0  0  0  0  0  0  0  0
    2.7662   -0.3667    0.1049 C   0  0  0  0  0  0  0  0  0  0  0  0
    3.3731   -1.0097    1.3609 C   0  0  0  0  0  0  0  0  0  0  0  0
    3.0182   -1.2930   -1.1002 C   0  0  0  0  0  0  0  0  0  0  0  0
    1.3594   -0.2214    0.3428 O   0  0  0  0  0  0  0  0  0  0  0  0
    0.4182    0.3294   -0.5416 C   0  0  0  0  0  0  0  0  0  0  0  0
    0.7705    0.7391   -1.6814 O   0  0  0  0  0  0  0  0  0  0  0  0
   -1.0415    0.3729   -0.1134 C   0  0  0  0  0  0  0  0  0  0  0  0
   -1.5370   -1.0944   -0.0105 C   0  0  0  0  0  0  0  0  0  0  0  0
   -2.0840   -1.6183    1.1904 C   0  0  0  0  0  0  0  0  0  0  0  0
   -2.5342   -2.9379    1.2675 C   0  0  0  0  0  0  0  0  0  0  0  0
   -2.4503   -3.7748    0.1603 C   0  0  0  0  0  0  0  0  0  0  0  0
   -1.9090   -3.2982   -1.0294 C   0  0  0  0  0  0  0  0  0  0  0  0
   -1.4519   -1.9789   -1.1268 C   0  0  0  0  0  0  0  0  0  0  0  0
   -0.8835   -1.5643   -2.3667 N   0  0  0  0  0  1  0  0  0  0  0  0
   -1.1180    1.1349    1.2484 C   0  0  0  0  0  0  0  0  0  0  0  0
   -0.7241    2.6131    1.1222 C   0  0  0  0  0  0  0  0  0  0  0  0
   -1.6528    3.3286    0.1404 C   0  0  0  0  0  0  0  0  0  0  0  0
   -1.6263    2.6480   -1.2292 C   0  0  0  0  0  0  0  0  0  0  0  0
   -1.9470    1.1438   -1.1289 C   0  0  0  0  0  0  0  0  0  0  0  0
    4.5283    0.9105   -0.1705 H   0  0  0  0  0  0  0  0  0  0  0  0
    3.0804    1.4733   -1.0646 H   0  0  0  0  0  0  0  0  0  0  0  0
    3.1667    1.6947    0.7189 H   0  0  0  0  0  0  0  0  0  0  0  0
    3.1911   -0.3665    2.2488 H   0  0  0  0  0  0  0  0  0  0  0  0
    2.9049   -1.9995    1.5512 H   0  0  0  0  0  0  0  0  0  0  0  0
    4.4696   -1.1528    1.2461 H   0  0  0  0  0  0  0  0  0  0  0  0
    2.6801   -0.8268   -2.0478 H   0  0  0  0  0  0  0  0  0  0  0  0
    2.4702   -2.2506   -0.9678 H   0  0  0  0  0  0  0  0  0  0  0  0
    4.1024   -1.5150   -1.2023 H   0  0  0  0  0  0  0  0  0  0  0  0
   -2.1676   -1.0332    2.0920 H   0  0  0  0  0  0  0  0  0  0  0  0
   -2.9482   -3.3136    2.1946 H   0  0  0  0  0  0  0  0  0  0  0  0
   -2.7996   -4.7972    0.2260 H   0  0  0  0  0  0  0  0  0  0  0  0
   -1.8390   -3.9609   -1.8832 H   0  0  0  0  0  0  0  0  0  0  0  0
   -0.4605    0.6537    2.0058 H   0  0  0  0  0  0  0  0  0  0  0  0
   -2.1600    1.1137    1.6376 H   0  0  0  0  0  0  0  0  0  0  0  0
   -0.8069    3.0988    2.1184 H   0  0  0  0  0  0  0  0  0  0  0  0
    0.3320    2.7081    0.7877 H   0  0  0  0  0  0  0  0  0  0  0  0
   -1.3290    4.3861    0.0319 H   0  0  0  0  0  0  0  0  0  0  0  0
   -2.6918    3.3278    0.5375 H   0  0  0  0  0  0  0  0  0  0  0  0
   -2.3790    3.1342   -1.8866 H   0  0  0  0  0  0  0  0  0  0  0  0
   -0.6330    2.8049   -1.6992 H   0  0  0  0  0  0  0  0  0  0  0  0
   -3.0105    1.0350   -0.8190 H   0  0  0  0  0  0  0  0  0  0  0  0
   -1.8693    0.7143   -2.1479 H   0  0  0  0  0  0  0  0  0  0  0  0
  1  2  1  0
  2  3  1  0
  2  4  1  0
  2  5  1  0
  5  6  1  0
  6  7  2  0
  6  8  1  0
  8  9  1  0
  9 10  2  0
 10 11  1  0
 11 12  2  0
 12 13  1  0
 13 14  2  0
 14 15  1  0
  8 16  1  0
 16 17  1  0
 17 18  1  0
 18 19  1  0
 19 20  1  0
 20  8  1  0
 14  9  1  0
  1 21  1  0
  1 22  1  0
  1 23  1  0
  3 24  1  0
  3 25  1  0
  3 26  1  0
  4 27  1  0
  4 28  1  0
  4 29  1  0
 10 30  1  0
 11 31  1  0
 12 32  1  0
 13 33  1  0
 16 34  1  0
 16 35  1  0
 17 36  1  0
 17 37  1  0
 18 38  1  0
 18 39  1  0
 19 40  1  0
 19 41  1  0
 20 42  1  0
 20 43  1  0
M  RAD  1  15   3
M  END
$$$$
