
     RDKit          3D

 43 44  0  0  0  0  0  0  0  0999 V2000
    3.0089    1.3754   -1.3085 C   0  0  0  0  0  0  0  0  0  0  0  0
    2.7890    0.5289   -0.0401 C   0  0  0  0  0  0  0  0  0  0  0  0
    3.4922    1.2138    1.1413 C   0  0  0  0  0  0  0  0  0  0  0  0
    3.3777   -0.8835   -0.2184 C   0  0  0  0  0  0  0  0  0  0  0  0
    1.3933    0.4572    0.2839 O   0  0  0  0  0  0  0  0  0  0  0  0
    0.3731   -0.0660   -0.5281 C   0  0  0  0  0  0  0  0  0  0  0  0
    0.6579   -0.6069   -1.6327 O   0  0  0  0  0  0  0  0  0  0  0  0
   -1.0818   -0.0713   -0.0378 C   0  0  0  0  0  0  0  0  0  0  0  0
   -1.4411   -1.4463    0.5994 C   0  0  0  0  0  0  0  0  0  0  0  0
   -0.4558   -2.4578    0.7653 C   0  0  0  0  0  0  0  0  0  0  0  0
   -0.7692   -3.6963    1.3276 C   0  0  0  0  0  0  0  0  0  0  0  0
   -2.0643   -3.9660    1.7529 C   0  0  0  0  0  0  0  0  0  0  0  0
   -3.0508   -2.9934    1.6285 C   0  0  0  0  0  0  0  0  0  0  0  0
   -2.7577   -1.7438    1.0689 C   0  0  0  0  0  0  0  0  0  0  0  0
   -3.8114   -0.7851    1.0207 N   0  0  0  0  0  1  0  0  0  0  0  0
   -1.9878    0.2014   -1.2818 C   0  0  0  0  0  0  0  0  0  0  0  0
   -1.6726    1.5494   -1.9706 C   0  0  0  0  0  0  0  0  0  0  0  0
   -1.2043    2.6428   -0.9906 C   0  0  0  0  0  0  0  0  0  0  0  0
   -1.7544    2.4190    0.4198 C   0  0  0  0  0  0  0  0  0  0  0  0
   -1.2908    1.0745    1.0206 C   0  0  0  0  0  0  0  0  0  0  0  0
    4.0942    1.5322   -1.4898 H   0  0  0  0  0  0  0  0  0  0  0  0
    2.5861    0.8793   -2.2055 H   0  0  0  0  0  0  0  0  0  0  0  0
    2.5216    2.3675   -1.1963 H   0  0  0  0  0  0  0  0  0  0  0  0
    4.5847    1.3052    0.9572 H   0  0  0  0  0  0  0  0  0  0  0  0
    3.0737    2.2310    1.3010 H   0  0  0  0  0  0  0  0  0  0  0  0
    3.3379    0.6283    2.0732 H   0  0  0  0  0  0  0  0  0  0  0  0
    3.1464   -1.5098    0.6698 H   0  0  0  0  0  0  0  0  0  0  0  0
    2.9642   -1.3857   -1.1163 H   0  0  0  0  0  0  0  0  0  0  0  0
    4.4814   -0.8340   -0.3393 H   0  0  0  0  0  0  0  0  0  0  0  0
    0.5723   -2.3141    0.4685 H   0  0  0  0  0  0  0  0  0  0  0  0
    0.0002   -4.4501    1.4361 H   0  0  0  0  0  0  0  0  0  0  0  0
   -2.3024   -4.9274    2.1895 H   0  0  0  0  0  0  0  0  0  0  0  0
   -4.0529   -3.2087    1.9788 H   0  0  0  0  0  0  0  0  0  0  0  0
   -3.0558    0.2347   -0.9984 H   0  0  0  0  0  0  0  0  0  0  0  0
   -1.8921   -0.6228   -2.0228 H   0  0  0  0  0  0  0  0  0  0  0  0
   -0.8866    1.3999   -2.7424 H   0  0  0  0  0  0  0  0  0  0  0  0
   -2.5845    1.8995   -2.5026 H   0  0  0  0  0  0  0  0  0  0  0  0
   -0.0936    2.6612   -0.9479 H   0  0  0  0  0  0  0  0  0  0  0  0
   -1.5347    3.6369   -1.3620 H   0  0  0  0  0  0  0  0  0  0  0  0
   -1.4286    3.2517    1.0801 H   0  0  0  0  0  0  0  0  0  0  0  0
   -2.8659    2.4426    0.3786 H   0  0  0  0  0  0  0  0  0  0  0  0
   -2.0415    0.7896    1.7846 H   0  0  0  0  0  0  0  0  0  0  0  0
   -0.3742    1.2468    1.6214 H   0  0  0  0  0  0  0  0  0  0  0  0
  1  2  1  0
  2  3  1  0
  2  4  1  0
  2  5  1  0
  5  6  1  0
  6  7  2  0
  6  8  1  0
  8  9  1  0
  9 10  2  0
 10 11  1  0
 11 12  2  0
 12 13  1  0
 13 14  2  0
 14 15  1  0
  8 16  1  0
 16 17  1  0
 17 18  1  0
 18 19  1  0
 19 20  1  0
 20  8  1  0
 14  9  1  0
  1 21  1  0
  1 22  1  0
  1 23  1  0
  3 24  1  0
  3 25  1  0
  3 26  1  0
  4 27  1  0
  4 28  1  0
  4 29  1  0
 10 30  1  0
 11 31  1  0
 12 32  1  0
 13 33  1  0
 16 34  1  0
 16 35  1  0
 17 36  1  0
 17 37  1  0
 18 38  1  0
 18 39  1  0
 19 40  1  0
 19 41  1  0
 20 42  1  0
 20 43  1  0
M  RAD  1  15   3
M  END
$$$$
