
     RDKit          3D

 43 44  0  0  0  0  0  0  0  0999 V2000
    3.8790    0.7552   -0.0604 C   0  0  0  0  0  0  0  0  0  0  0  0
    3.0193   -0.5223   -0.0170 C   0  0  0  0  0  0  0  0  0  0  0  0
    3.2022   -1.2578    1.3243 C   0  0  0  0  0  0  0  0  0  0  0  0
    3.4557   -1.4540   -1.1576 C   0  0  0  0  0  0  0  0  0  0  0  0
    1.6367   -0.2087   -0.2340 O   0  0  0  0  0  0  0  0  0  0  0  0
    0.8249    0.5910    0.5870 C   0  0  0  0  0  0  0  0  0  0  0  0
    1.3100    1.1892    1.5866 O   0  0  0  0  0  0  0  0  0  0  0  0
   -0.6427    0.7416    0.2276 C   0  0  0  0  0  0  0  0  0  0  0  0
   -1.2018   -0.6927    0.0119 C   0  0  0  0  0  0  0  0  0  0  0  0
   -1.6281   -1.1492   -1.2615 C   0  0  0  0  0  0  0  0  0  0  0  0
   -2.1379   -2.4370   -1.4387 C   0  0  0  0  0  0  0  0  0  0  0  0
   -2.2012   -3.3205   -0.3672 C   0  0  0  0  0  0  0  0  0  0  0  0
   -1.7224   -2.9313    0.8796 C   0  0  0  0  0  0  0  0  0  0  0  0
   -1.2059   -1.6451    1.0747 C   0  0  0  0  0  0  0  0  0  0  0  0
   -0.6204   -1.3532    2.3416 N   0  0  0  0  0  1  0  0  0  0  0  0
   -1.4216    1.4821    1.3658 C   0  0  0  0  0  0  0  0  0  0  0  0
   -2.8544    1.8373    0.9551 C   0  0  0  0  0  0  0  0  0  0  0  0
   -2.8413    2.7743   -0.2523 C   0  0  0  0  0  0  0  0  0  0  0  0
   -2.1117    2.1252   -1.4279 C   0  0  0  0  0  0  0  0  0  0  0  0
   -0.6908    1.6651   -1.0347 C   0  0  0  0  0  0  0  0  0  0  0  0
    3.6660    1.4173    0.8032 H   0  0  0  0  0  0  0  0  0  0  0  0
    4.9602    0.4994   -0.0290 H   0  0  0  0  0  0  0  0  0  0  0  0
    3.6754    1.3220   -0.9941 H   0  0  0  0  0  0  0  0  0  0  0  0
    2.9785   -0.5933    2.1836 H   0  0  0  0  0  0  0  0  0  0  0  0
    2.5215   -2.1346    1.3757 H   0  0  0  0  0  0  0  0  0  0  0  0
    4.2493   -1.6134    1.4355 H   0  0  0  0  0  0  0  0  0  0  0  0
    4.5241   -1.7422   -1.0512 H   0  0  0  0  0  0  0  0  0  0  0  0
    2.8380   -2.3780   -1.1574 H   0  0  0  0  0  0  0  0  0  0  0  0
    3.3209   -0.9504   -2.1391 H   0  0  0  0  0  0  0  0  0  0  0  0
   -1.5559   -0.5414   -2.1469 H   0  0  0  0  0  0  0  0  0  0  0  0
   -2.4722   -2.7553   -2.4179 H   0  0  0  0  0  0  0  0  0  0  0  0
   -2.5921   -4.3196   -0.5105 H   0  0  0  0  0  0  0  0  0  0  0  0
   -1.7307   -3.6424    1.6965 H   0  0  0  0  0  0  0  0  0  0  0  0
   -1.4628    0.8993    2.3043 H   0  0  0  0  0  0  0  0  0  0  0  0
   -0.8990    2.4312    1.6228 H   0  0  0  0  0  0  0  0  0  0  0  0
   -3.4265    0.9138    0.7177 H   0  0  0  0  0  0  0  0  0  0  0  0
   -3.3628    2.3458    1.8026 H   0  0  0  0  0  0  0  0  0  0  0  0
   -3.8868    3.0059   -0.5499 H   0  0  0  0  0  0  0  0  0  0  0  0
   -2.3422    3.7311    0.0174 H   0  0  0  0  0  0  0  0  0  0  0  0
   -2.7260    1.2832   -1.8020 H   0  0  0  0  0  0  0  0  0  0  0  0
   -2.0346    2.8632   -2.2552 H   0  0  0  0  0  0  0  0  0  0  0  0
   -0.1930    1.1842   -1.9038 H   0  0  0  0  0  0  0  0  0  0  0  0
   -0.0970    2.5850   -0.8287 H   0  0  0  0  0  0  0  0  0  0  0  0
  1  2  1  0
  2  3  1  0
  2  4  1  0
  2  5  1  0
  5  6  1  0
  6  7  2  0
  6  8  1  0
  8  9  1  0
  9 10  2  0
 10 11  1  0
 11 12  2  0
 12 13  1  0
 13 14  2  0
 14 15  1  0
  8 16  1  0
 16 17  1  0
 17 18  1  0
 18 19  1  0
 19 20  1  0
 20  8  1  0
 14  9  1  0
  1 21  1  0
  1 22  1  0
  1 23  1  0
  3 24  1  0
  3 25  1  0
  3 26  1  0
  4 27  1  0
  4 28  1  0
  4 29  1  0
 10 30  1  0
 11 31  1  0
 12 32  1  0
 13 33  1  0
 16 34  1  0
 16 35  1  0
 17 36  1  0
 17 37  1  0
 18 38  1  0
 18 39  1  0
 19 40  1  0
 19 41  1  0
 20 42  1  0
 20 43  1  0
M  RAD  1  15   3
M  END
$$$$
