
     RDKit          3D

 43 44  0  0  0  0  0  0  0  0999 V2000
    3.3660   -1.2449   -1.1058 C   0  0  0  0  0  0  0  0  0  0  0  0
    3.1988    0.0729   -0.3254 C   0  0  0  0  0  0  0  0  0  0  0  0
    3.8449   -0.0341    1.0690 C   0  0  0  0  0  0  0  0  0  0  0  0
    3.8870    1.2025   -1.1063 C   0  0  0  0  0  0  0  0  0  0  0  0
    1.8116    0.4210   -0.2137 O   0  0  0  0  0  0  0  0  0  0  0  0
    0.8111   -0.3329    0.4230 C   0  0  0  0  0  0  0  0  0  0  0  0
    1.0900   -1.4301    0.9803 O   0  0  0  0  0  0  0  0  0  0  0  0
   -0.6260    0.1586    0.4344 C   0  0  0  0  0  0  0  0  0  0  0  0
   -1.4764   -0.8993   -0.3237 C   0  0  0  0  0  0  0  0  0  0  0  0
   -2.4565   -1.6849    0.3353 C   0  0  0  0  0  0  0  0  0  0  0  0
   -3.2271   -2.6192   -0.3597 C   0  0  0  0  0  0  0  0  0  0  0  0
   -3.0200   -2.8285   -1.7183 C   0  0  0  0  0  0  0  0  0  0  0  0
   -2.0172   -2.1284   -2.3810 C   0  0  0  0  0  0  0  0  0  0  0  0
   -1.2334   -1.1898   -1.6998 C   0  0  0  0  0  0  0  0  0  0  0  0
   -0.1487   -0.5964   -2.4094 N   0  0  0  0  0  1  0  0  0  0  0  0
   -0.7216    1.5596   -0.2552 C   0  0  0  0  0  0  0  0  0  0  0  0
   -2.1052    2.1981   -0.0942 C   0  0  0  0  0  0  0  0  0  0  0  0
   -2.4191    2.4151    1.3854 C   0  0  0  0  0  0  0  0  0  0  0  0
   -2.3660    1.0901    2.1447 C   0  0  0  0  0  0  0  0  0  0  0  0
   -1.0172    0.3677    1.9368 C   0  0  0  0  0  0  0  0  0  0  0  0
    2.9569   -2.1062   -0.5396 H   0  0  0  0  0  0  0  0  0  0  0  0
    2.8348   -1.1837   -2.0797 H   0  0  0  0  0  0  0  0  0  0  0  0
    4.4409   -1.4496   -1.3006 H   0  0  0  0  0  0  0  0  0  0  0  0
    3.4427   -0.8974    1.6370 H   0  0  0  0  0  0  0  0  0  0  0  0
    3.6492    0.8903    1.6535 H   0  0  0  0  0  0  0  0  0  0  0  0
    4.9442   -0.1721    0.9805 H   0  0  0  0  0  0  0  0  0  0  0  0
    3.7693    2.1687   -0.5697 H   0  0  0  0  0  0  0  0  0  0  0  0
    3.4279    1.3099   -2.1127 H   0  0  0  0  0  0  0  0  0  0  0  0
    4.9723    0.9974   -1.2323 H   0  0  0  0  0  0  0  0  0  0  0  0
   -2.6355   -1.6160    1.3945 H   0  0  0  0  0  0  0  0  0  0  0  0
   -3.9807   -3.1938    0.1637 H   0  0  0  0  0  0  0  0  0  0  0  0
   -3.6165   -3.5573   -2.2518 H   0  0  0  0  0  0  0  0  0  0  0  0
   -1.8316   -2.3323   -3.4285 H   0  0  0  0  0  0  0  0  0  0  0  0
   -0.4802    1.5240   -1.3333 H   0  0  0  0  0  0  0  0  0  0  0  0
    0.0268    2.2493    0.1975 H   0  0  0  0  0  0  0  0  0  0  0  0
   -2.8822    1.5535   -0.5604 H   0  0  0  0  0  0  0  0  0  0  0  0
   -2.1182    3.1799   -0.6149 H   0  0  0  0  0  0  0  0  0  0  0  0
   -3.4338    2.8572    1.4857 H   0  0  0  0  0  0  0  0  0  0  0  0
   -1.6890    3.1298    1.8256 H   0  0  0  0  0  0  0  0  0  0  0  0
   -3.2197    0.4633    1.8206 H   0  0  0  0  0  0  0  0  0  0  0  0
   -2.5033    1.2910    3.2291 H   0  0  0  0  0  0  0  0  0  0  0  0
   -0.2348    0.9913    2.4271 H   0  0  0  0  0  0  0  0  0  0  0  0
   -1.0146   -0.5943    2.4923 H   0  0  0  0  0  0  0  0  0  0  0  0
  1  2  1  0
  2  3  1  0
  2  4  1  0
  2  5  1  0
  5  6  1  0
  6  7  2  0
  6  8  1  0
  8  9  1  0
  9 10  2  0
 10 11  1  0
 11 12  2  0
 12 13  1  0
 13 14  2  0
 14 15  1  0
  8 16  1  0
 16 17  1  0
 17 18  1  0
 18 19  1  0
 19 20  1  0
 20  8  1  0
 14  9  1  0
  1 21  1  0
  1 22  1  0
  1 23  1  0
  3 24  1  0
  3 25  1  0
  3 26  1  0
  4 27  1  0
  4 28  1  0
  4 29  1  0
 10 30  1  0
 11 31  1  0
 12 32  1  0
 13 33  1  0
 16 34  1  0
 16 35  1  0
 17 36  1  0
 17 37  1  0
 18 38  1  0
 18 39  1  0
 19 40  1  0
 19 41  1  0
 20 42  1  0
 20 43  1  0
M  RAD  1  15   3
M  END
$$$$
