
     RDKit          3D

 43 44  0  0  0  0  0  0  0  0999 V2000
    3.4167   -0.8374   -0.6380 C   0  0  0  0  0  0  0  0  0  0  0  0
    2.8512    0.0587    0.4802 C   0  0  0  0  0  0  0  0  0  0  0  0
    3.3806   -0.4424    1.8323 C   0  0  0  0  0  0  0  0  0  0  0  0
    3.2942    1.5211    0.2832 C   0  0  0  0  0  0  0  0  0  0  0  0
    1.4202   -0.0328    0.5269 O   0  0  0  0  0  0  0  0  0  0  0  0
    0.5251    0.3602   -0.4831 C   0  0  0  0  0  0  0  0  0  0  0  0
    0.9594    0.7620   -1.5977 O   0  0  0  0  0  0  0  0  0  0  0  0
   -0.9791    0.2047   -0.2371 C   0  0  0  0  0  0  0  0  0  0  0  0
   -1.3771   -1.2981   -0.2291 C   0  0  0  0  0  0  0  0  0  0  0  0
   -0.4835   -2.2964   -0.7003 C   0  0  0  0  0  0  0  0  0  0  0  0
   -0.8412   -3.6457   -0.7116 C   0  0  0  0  0  0  0  0  0  0  0  0
   -2.1032   -4.0403   -0.2817 C   0  0  0  0  0  0  0  0  0  0  0  0
   -3.0206   -3.0848    0.1451 C   0  0  0  0  0  0  0  0  0  0  0  0
   -2.6809   -1.7268    0.1629 C   0  0  0  0  0  0  0  0  0  0  0  0
   -3.6873   -0.7985    0.5614 N   0  0  0  0  0  1  0  0  0  0  0  0
   -1.7743    0.8995   -1.3910 C   0  0  0  0  0  0  0  0  0  0  0  0
   -1.6217    2.4351   -1.4171 C   0  0  0  0  0  0  0  0  0  0  0  0
   -1.5841    3.0797   -0.0190 C   0  0  0  0  0  0  0  0  0  0  0  0
   -2.1423    2.1529    1.0610 C   0  0  0  0  0  0  0  0  0  0  0  0
   -1.2940    0.8757    1.1578 C   0  0  0  0  0  0  0  0  0  0  0  0
    4.5272   -0.8578   -0.5970 H   0  0  0  0  0  0  0  0  0  0  0  0
    3.1244   -0.4679   -1.6416 H   0  0  0  0  0  0  0  0  0  0  0  0
    3.0398   -1.8763   -0.5243 H   0  0  0  0  0  0  0  0  0  0  0  0
    2.9763    0.1810    2.6589 H   0  0  0  0  0  0  0  0  0  0  0  0
    3.0610   -1.4926    2.0056 H   0  0  0  0  0  0  0  0  0  0  0  0
    4.4909   -0.3998    1.8670 H   0  0  0  0  0  0  0  0  0  0  0  0
    4.3977    1.6118    0.3805 H   0  0  0  0  0  0  0  0  0  0  0  0
    3.0132    1.8976   -0.7214 H   0  0  0  0  0  0  0  0  0  0  0  0
    2.8156    2.1720    1.0460 H   0  0  0  0  0  0  0  0  0  0  0  0
    0.4999   -2.0531   -1.0746 H   0  0  0  0  0  0  0  0  0  0  0  0
   -0.1366   -4.3880   -1.0644 H   0  0  0  0  0  0  0  0  0  0  0  0
   -2.3774   -5.0873   -0.2949 H   0  0  0  0  0  0  0  0  0  0  0  0
   -4.0092   -3.4005    0.4547 H   0  0  0  0  0  0  0  0  0  0  0  0
   -1.4686    0.4841   -2.3767 H   0  0  0  0  0  0  0  0  0  0  0  0
   -2.8575    0.6782   -1.2984 H   0  0  0  0  0  0  0  0  0  0  0  0
   -0.6986    2.7135   -1.9691 H   0  0  0  0  0  0  0  0  0  0  0  0
   -2.4736    2.8604   -1.9918 H   0  0  0  0  0  0  0  0  0  0  0  0
   -2.1681    4.0254   -0.0296 H   0  0  0  0  0  0  0  0  0  0  0  0
   -0.5338    3.3414    0.2390 H   0  0  0  0  0  0  0  0  0  0  0  0
   -2.1298    2.6788    2.0404 H   0  0  0  0  0  0  0  0  0  0  0  0
   -3.1995    1.8992    0.8310 H   0  0  0  0  0  0  0  0  0  0  0  0
   -1.7893    0.1746    1.8602 H   0  0  0  0  0  0  0  0  0  0  0  0
   -0.3624    1.1589    1.6955 H   0  0  0  0  0  0  0  0  0  0  0  0
  1  2  1  0
  2  3  1  0
  2  4  1  0
  2  5  1  0
  5  6  1  0
  6  7  2  0
  6  8  1  0
  8  9  1  0
  9 10  2  0
 10 11  1  0
 11 12  2  0
 12 13  1  0
 13 14  2  0
 14 15  1  0
  8 16  1  0
 16 17  1  0
 17 18  1  0
 18 19  1  0
 19 20  1  0
 20  8  1  0
 14  9  1  0
  1 21  1  0
  1 22  1  0
  1 23  1  0
  3 24  1  0
  3 25  1  0
  3 26  1  0
  4 27  1  0
  4 28  1  0
  4 29  1  0
 10 30  1  0
 11 31  1  0
 12 32  1  0
 13 33  1  0
 16 34  1  0
 16 35  1  0
 17 36  1  0
 17 37  1  0
 18 38  1  0
 18 39  1  0
 19 40  1  0
 19 41  1  0
 20 42  1  0
 20 43  1  0
M  RAD  1  15   3
M  END
$$$$
