
     RDKit          3D

 43 44  0  0  0  0  0  0  0  0999 V2000
    3.3948    0.5396    0.9838 C   0  0  0  0  0  0  0  0  0  0  0  0
    2.8137    0.0976   -0.3730 C   0  0  0  0  0  0  0  0  0  0  0  0
    3.1510   -1.3787   -0.6556 C   0  0  0  0  0  0  0  0  0  0  0  0
    3.4257    0.9672   -1.4814 C   0  0  0  0  0  0  0  0  0  0  0  0
    1.3949    0.3071   -0.4074 O   0  0  0  0  0  0  0  0  0  0  0  0
    0.4447   -0.2666    0.4537 C   0  0  0  0  0  0  0  0  0  0  0  0
    0.8036   -1.1144    1.3176 O   0  0  0  0  0  0  0  0  0  0  0  0
   -1.0468    0.0584    0.2890 C   0  0  0  0  0  0  0  0  0  0  0  0
   -1.7561   -1.0360   -0.5624 C   0  0  0  0  0  0  0  0  0  0  0  0
   -1.0174   -2.0933   -1.1607 C   0  0  0  0  0  0  0  0  0  0  0  0
   -1.6445   -3.0835   -1.9186 C   0  0  0  0  0  0  0  0  0  0  0  0
   -3.0195   -3.0501   -2.1164 C   0  0  0  0  0  0  0  0  0  0  0  0
   -3.7735   -2.0188   -1.5664 C   0  0  0  0  0  0  0  0  0  0  0  0
   -3.1644   -1.0145   -0.8042 C   0  0  0  0  0  0  0  0  0  0  0  0
   -3.9988    0.0329   -0.3159 N   0  0  0  0  0  1  0  0  0  0  0  0
   -1.2122    1.4608   -0.4058 C   0  0  0  0  0  0  0  0  0  0  0  0
   -1.3114    2.6491    0.5750 C   0  0  0  0  0  0  0  0  0  0  0  0
   -0.5027    2.4138    1.8526 C   0  0  0  0  0  0  0  0  0  0  0  0
   -0.9965    1.1755    2.6259 C   0  0  0  0  0  0  0  0  0  0  0  0
   -1.6667    0.1145    1.7226 C   0  0  0  0  0  0  0  0  0  0  0  0
    4.5051    0.4919    0.9671 H   0  0  0  0  0  0  0  0  0  0  0  0
    3.0422   -0.1132    1.8079 H   0  0  0  0  0  0  0  0  0  0  0  0
    3.0885    1.5833    1.2102 H   0  0  0  0  0  0  0  0  0  0  0  0
    2.8065   -2.0388    0.1660 H   0  0  0  0  0  0  0  0  0  0  0  0
    2.6631   -1.7095   -1.5975 H   0  0  0  0  0  0  0  0  0  0  0  0
    4.2492   -1.5154   -0.7586 H   0  0  0  0  0  0  0  0  0  0  0  0
    4.5313    0.8553   -1.5122 H   0  0  0  0  0  0  0  0  0  0  0  0
    3.0126    0.6763   -2.4713 H   0  0  0  0  0  0  0  0  0  0  0  0
    3.1828    2.0379   -1.3087 H   0  0  0  0  0  0  0  0  0  0  0  0
    0.0543   -2.1763   -1.0589 H   0  0  0  0  0  0  0  0  0  0  0  0
   -1.0575   -3.8803   -2.3574 H   0  0  0  0  0  0  0  0  0  0  0  0
   -3.5012   -3.8195   -2.7060 H   0  0  0  0  0  0  0  0  0  0  0  0
   -4.8421   -1.9937   -1.7411 H   0  0  0  0  0  0  0  0  0  0  0  0
   -0.3924    1.6579   -1.1268 H   0  0  0  0  0  0  0  0  0  0  0  0
   -2.1191    1.4944   -1.0419 H   0  0  0  0  0  0  0  0  0  0  0  0
   -2.3766    2.8138    0.8506 H   0  0  0  0  0  0  0  0  0  0  0  0
   -0.9509    3.5737    0.0742 H   0  0  0  0  0  0  0  0  0  0  0  0
    0.5692    2.2897    1.5856 H   0  0  0  0  0  0  0  0  0  0  0  0
   -0.5762    3.3099    2.5060 H   0  0  0  0  0  0  0  0  0  0  0  0
   -1.7261    1.4945    3.4024 H   0  0  0  0  0  0  0  0  0  0  0  0
   -0.1348    0.7204    3.1608 H   0  0  0  0  0  0  0  0  0  0  0  0
   -2.7419    0.3683    1.6830 H   0  0  0  0  0  0  0  0  0  0  0  0
   -1.6040   -0.8814    2.2144 H   0  0  0  0  0  0  0  0  0  0  0  0
  1  2  1  0
  2  3  1  0
  2  4  1  0
  2  5  1  0
  5  6  1  0
  6  7  2  0
  6  8  1  0
  8  9  1  0
  9 10  2  0
 10 11  1  0
 11 12  2  0
 12 13  1  0
 13 14  2  0
 14 15  1  0
  8 16  1  0
 16 17  1  0
 17 18  1  0
 18 19  1  0
 19 20  1  0
 20  8  1  0
 14  9  1  0
  1 21  1  0
  1 22  1  0
  1 23  1  0
  3 24  1  0
  3 25  1  0
  3 26  1  0
  4 27  1  0
  4 28  1  0
  4 29  1  0
 10 30  1  0
 11 31  1  0
 12 32  1  0
 13 33  1  0
 16 34  1  0
 16 35  1  0
 17 36  1  0
 17 37  1  0
 18 38  1  0
 18 39  1  0
 19 40  1  0
 19 41  1  0
 20 42  1  0
 20 43  1  0
M  RAD  1  15   3
M  END
$$$$
