
     RDKit          3D

 43 44  0  0  0  0  0  0  0  0999 V2000
    3.5480    0.4158    0.1980 C   0  0  0  0  0  0  0  0  0  0  0  0
    2.6392    0.0764   -0.9989 C   0  0  0  0  0  0  0  0  0  0  0  0
    2.9900    1.0088   -2.1680 C   0  0  0  0  0  0  0  0  0  0  0  0
    2.8490   -1.3828   -1.4463 C   0  0  0  0  0  0  0  0  0  0  0  0
    1.2625    0.3111   -0.6707 O   0  0  0  0  0  0  0  0  0  0  0  0
    0.5330   -0.3040    0.3605 C   0  0  0  0  0  0  0  0  0  0  0  0
    1.0642   -1.2142    1.0558 O   0  0  0  0  0  0  0  0  0  0  0  0
   -0.9421    0.0559    0.5877 C   0  0  0  0  0  0  0  0  0  0  0  0
   -1.8730   -0.9667   -0.1288 C   0  0  0  0  0  0  0  0  0  0  0  0
   -1.3376   -1.9931   -0.9542 C   0  0  0  0  0  0  0  0  0  0  0  0
   -2.1626   -2.9194   -1.5940 C   0  0  0  0  0  0  0  0  0  0  0  0
   -3.5424   -2.8502   -1.4453 C   0  0  0  0  0  0  0  0  0  0  0  0
   -4.1054   -1.8462   -0.6645 C   0  0  0  0  0  0  0  0  0  0  0  0
   -3.2963   -0.9058   -0.0152 C   0  0  0  0  0  0  0  0  0  0  0  0
   -3.9517    0.1199    0.7267 N   0  0  0  0  0  1  0  0  0  0  0  0
   -1.1911    0.0253    2.1304 C   0  0  0  0  0  0  0  0  0  0  0  0
   -0.2864    1.0118    2.9046 C   0  0  0  0  0  0  0  0  0  0  0  0
    0.0437    2.2911    2.1112 C   0  0  0  0  0  0  0  0  0  0  0  0
   -1.0444    2.6254    1.0884 C   0  0  0  0  0  0  0  0  0  0  0  0
   -1.2265    1.5045    0.0424 C   0  0  0  0  0  0  0  0  0  0  0  0
    3.3404    1.4466    0.5566 H   0  0  0  0  0  0  0  0  0  0  0  0
    4.6184    0.3510   -0.0939 H   0  0  0  0  0  0  0  0  0  0  0  0
    3.3862   -0.2855    1.0417 H   0  0  0  0  0  0  0  0  0  0  0  0
    2.8317    2.0693   -1.8752 H   0  0  0  0  0  0  0  0  0  0  0  0
    4.0504    0.8811   -2.4764 H   0  0  0  0  0  0  0  0  0  0  0  0
    2.3385    0.7925   -3.0420 H   0  0  0  0  0  0  0  0  0  0  0  0
    2.1353   -1.6409   -2.2578 H   0  0  0  0  0  0  0  0  0  0  0  0
    2.6942   -2.0912   -0.6075 H   0  0  0  0  0  0  0  0  0  0  0  0
    3.8837   -1.5302   -1.8242 H   0  0  0  0  0  0  0  0  0  0  0  0
   -0.2768   -2.1003   -1.1243 H   0  0  0  0  0  0  0  0  0  0  0  0
   -1.7268   -3.6943   -2.2118 H   0  0  0  0  0  0  0  0  0  0  0  0
   -4.1783   -3.5699   -1.9445 H   0  0  0  0  0  0  0  0  0  0  0  0
   -5.1829   -1.7917   -0.5693 H   0  0  0  0  0  0  0  0  0  0  0  0
   -1.0426   -1.0024    2.5295 H   0  0  0  0  0  0  0  0  0  0  0  0
   -2.2345    0.2989    2.3719 H   0  0  0  0  0  0  0  0  0  0  0  0
   -0.7935    1.2896    3.8547 H   0  0  0  0  0  0  0  0  0  0  0  0
    0.6646    0.5074    3.1823 H   0  0  0  0  0  0  0  0  0  0  0  0
    1.0134    2.1676    1.5818 H   0  0  0  0  0  0  0  0  0  0  0  0
    0.1612    3.1422    2.8163 H   0  0  0  0  0  0  0  0  0  0  0  0
   -0.7872    3.5756    0.5721 H   0  0  0  0  0  0  0  0  0  0  0  0
   -2.0041    2.7888    1.6270 H   0  0  0  0  0  0  0  0  0  0  0  0
   -0.6016    1.7363   -0.8446 H   0  0  0  0  0  0  0  0  0  0  0  0
   -2.2597    1.5959   -0.3480 H   0  0  0  0  0  0  0  0  0  0  0  0
  1  2  1  0
  2  3  1  0
  2  4  1  0
  2  5  1  0
  5  6  1  0
  6  7  2  0
  6  8  1  0
  8  9  1  0
  9 10  2  0
 10 11  1  0
 11 12  2  0
 12 13  1  0
 13 14  2  0
 14 15  1  0
  8 16  1  0
 16 17  1  0
 17 18  1  0
 18 19  1  0
 19 20  1  0
 20  8  1  0
 14  9  1  0
  1 21  1  0
  1 22  1  0
  1 23  1  0
  3 24  1  0
  3 25  1  0
  3 26  1  0
  4 27  1  0
  4 28  1  0
  4 29  1  0
 10 30  1  0
 11 31  1  0
 12 32  1  0
 13 33  1  0
 16 34  1  0
 16 35  1  0
 17 36  1  0
 17 37  1  0
 18 38  1  0
 18 39  1  0
 19 40  1  0
 19 41  1  0
 20 42  1  0
 20 43  1  0
M  RAD  1  15   3
M  END
$$$$
