
     RDKit          3D

 43 44  0  0  0  0  0  0  0  0999 V2000
    3.3574   -1.1375    1.6408 C   0  0  0  0  0  0  0  0  0  0  0  0
    3.0188   -0.3312    0.3780 C   0  0  0  0  0  0  0  0  0  0  0  0
    3.7989    0.9966    0.4103 C   0  0  0  0  0  0  0  0  0  0  0  0
    3.4052   -1.1611   -0.8611 C   0  0  0  0  0  0  0  0  0  0  0  0
    1.6055   -0.0878    0.3991 O   0  0  0  0  0  0  0  0  0  0  0  0
    0.8620    0.5899   -0.5808 C   0  0  0  0  0  0  0  0  0  0  0  0
    1.4361    1.1335   -1.5643 O   0  0  0  0  0  0  0  0  0  0  0  0
   -0.6448    0.6776   -0.4145 C   0  0  0  0  0  0  0  0  0  0  0  0
   -1.1513   -0.7664   -0.1408 C   0  0  0  0  0  0  0  0  0  0  0  0
   -1.7087   -1.1429    1.1078 C   0  0  0  0  0  0  0  0  0  0  0  0
   -2.1691   -2.4412    1.3363 C   0  0  0  0  0  0  0  0  0  0  0  0
   -2.0525   -3.4115    0.3476 C   0  0  0  0  0  0  0  0  0  0  0  0
   -1.4429   -3.0964   -0.8625 C   0  0  0  0  0  0  0  0  0  0  0  0
   -0.9735   -1.8008   -1.1078 C   0  0  0  0  0  0  0  0  0  0  0  0
   -0.2507   -1.5775   -2.3163 N   0  0  0  0  0  1  0  0  0  0  0  0
   -1.3132    1.2726   -1.6990 C   0  0  0  0  0  0  0  0  0  0  0  0
   -2.8025    1.5702   -1.4959 C   0  0  0  0  0  0  0  0  0  0  0  0
   -2.9886    2.6017   -0.3836 C   0  0  0  0  0  0  0  0  0  0  0  0
   -2.3784    2.0976    0.9239 C   0  0  0  0  0  0  0  0  0  0  0  0
   -0.8977    1.6963    0.7460 C   0  0  0  0  0  0  0  0  0  0  0  0
    4.4442   -1.3663    1.6891 H   0  0  0  0  0  0  0  0  0  0  0  0
    3.0754   -0.5647    2.5505 H   0  0  0  0  0  0  0  0  0  0  0  0
    2.7933   -2.0952    1.6487 H   0  0  0  0  0  0  0  0  0  0  0  0
    3.4514    1.6241    1.2589 H   0  0  0  0  0  0  0  0  0  0  0  0
    4.8874    0.8071    0.5315 H   0  0  0  0  0  0  0  0  0  0  0  0
    3.6611    1.5713   -0.5279 H   0  0  0  0  0  0  0  0  0  0  0  0
    3.2562   -0.5843   -1.7966 H   0  0  0  0  0  0  0  0  0  0  0  0
    4.4751   -1.4586   -0.8142 H   0  0  0  0  0  0  0  0  0  0  0  0
    2.7827   -2.0800   -0.9156 H   0  0  0  0  0  0  0  0  0  0  0  0
   -1.7791   -0.4615    1.9381 H   0  0  0  0  0  0  0  0  0  0  0  0
   -2.6059   -2.6986    2.2928 H   0  0  0  0  0  0  0  0  0  0  0  0
   -2.4059   -4.4180    0.5312 H   0  0  0  0  0  0  0  0  0  0  0  0
   -1.3124   -3.8710   -1.6081 H   0  0  0  0  0  0  0  0  0  0  0  0
   -1.2068    0.6137   -2.5802 H   0  0  0  0  0  0  0  0  0  0  0  0
   -0.8125    2.2282   -1.9747 H   0  0  0  0  0  0  0  0  0  0  0  0
   -3.2270    1.9750   -2.4399 H   0  0  0  0  0  0  0  0  0  0  0  0
   -3.3510    0.6353   -1.2477 H   0  0  0  0  0  0  0  0  0  0  0  0
   -2.5100    3.5625   -0.6754 H   0  0  0  0  0  0  0  0  0  0  0  0
   -4.0735    2.7912   -0.2350 H   0  0  0  0  0  0  0  0  0  0  0  0
   -2.4434    2.9041    1.6857 H   0  0  0  0  0  0  0  0  0  0  0  0
   -2.9901    1.2523    1.2949 H   0  0  0  0  0  0  0  0  0  0  0  0
   -0.3314    2.6316    0.5318 H   0  0  0  0  0  0  0  0  0  0  0  0
   -0.4878    1.3201    1.7077 H   0  0  0  0  0  0  0  0  0  0  0  0
  1  2  1  0
  2  3  1  0
  2  4  1  0
  2  5  1  0
  5  6  1  0
  6  7  2  0
  6  8  1  0
  8  9  1  0
  9 10  2  0
 10 11  1  0
 11 12  2  0
 12 13  1  0
 13 14  2  0
 14 15  1  0
  8 16  1  0
 16 17  1  0
 17 18  1  0
 18 19  1  0
 19 20  1  0
 20  8  1  0
 14  9  1  0
  1 21  1  0
  1 22  1  0
  1 23  1  0
  3 24  1  0
  3 25  1  0
  3 26  1  0
  4 27  1  0
  4 28  1  0
  4 29  1  0
 10 30  1  0
 11 31  1  0
 12 32  1  0
 13 33  1  0
 16 34  1  0
 16 35  1  0
 17 36  1  0
 17 37  1  0
 18 38  1  0
 18 39  1  0
 19 40  1  0
 19 41  1  0
 20 42  1  0
 20 43  1  0
M  RAD  1  15   3
M  END
$$$$
