
     RDKit          3D

 43 44  0  0  0  0  0  0  0  0999 V2000
    3.1740   -0.9140   -1.8275 C   0  0  0  0  0  0  0  0  0  0  0  0
    2.7257   -0.4088   -0.4480 C   0  0  0  0  0  0  0  0  0  0  0  0
    3.0738   -1.4736    0.6096 C   0  0  0  0  0  0  0  0  0  0  0  0
    3.4470    0.9182   -0.1447 C   0  0  0  0  0  0  0  0  0  0  0  0
    1.3071   -0.2080   -0.5124 O   0  0  0  0  0  0  0  0  0  0  0  0
    0.4841    0.2557    0.5263 C   0  0  0  0  0  0  0  0  0  0  0  0
    0.9690    0.5230    1.6597 O   0  0  0  0  0  0  0  0  0  0  0  0
   -1.0106    0.3785    0.2682 C   0  0  0  0  0  0  0  0  0  0  0  0
   -1.5624   -1.0564    0.0548 C   0  0  0  0  0  0  0  0  0  0  0  0
   -2.2511   -1.4261   -1.1304 C   0  0  0  0  0  0  0  0  0  0  0  0
   -2.7503   -2.7182   -1.3066 C   0  0  0  0  0  0  0  0  0  0  0  0
   -2.5767   -3.6796   -0.3172 C   0  0  0  0  0  0  0  0  0  0  0  0
   -1.8964   -3.3555    0.8524 C   0  0  0  0  0  0  0  0  0  0  0  0
   -1.3883   -2.0661    1.0478 C   0  0  0  0  0  0  0  0  0  0  0  0
   -0.6777   -1.8100    2.2569 N   0  0  0  0  0  1  0  0  0  0  0  0
   -1.7770    1.0447    1.4575 C   0  0  0  0  0  0  0  0  0  0  0  0
   -1.3980    2.5203    1.6915 C   0  0  0  0  0  0  0  0  0  0  0  0
   -1.5476    3.3556    0.4190 C   0  0  0  0  0  0  0  0  0  0  0  0
   -0.7528    2.7400   -0.7332 C   0  0  0  0  0  0  0  0  0  0  0  0
   -1.2064    1.2949   -0.9820 C   0  0  0  0  0  0  0  0  0  0  0  0
    2.6558   -1.8652   -2.0762 H   0  0  0  0  0  0  0  0  0  0  0  0
    2.9198   -0.1685   -2.6117 H   0  0  0  0  0  0  0  0  0  0  0  0
    4.2711   -1.0919   -1.8505 H   0  0  0  0  0  0  0  0  0  0  0  0
    2.8541   -1.1138    1.6353 H   0  0  0  0  0  0  0  0  0  0  0  0
    4.1548   -1.7283    0.5666 H   0  0  0  0  0  0  0  0  0  0  0  0
    2.4836   -2.3979    0.4306 H   0  0  0  0  0  0  0  0  0  0  0  0
    4.5483    0.7914   -0.2245 H   0  0  0  0  0  0  0  0  0  0  0  0
    3.2232    1.2762    0.8808 H   0  0  0  0  0  0  0  0  0  0  0  0
    3.1264    1.7013   -0.8649 H   0  0  0  0  0  0  0  0  0  0  0  0
   -2.4108   -0.7386   -1.9455 H   0  0  0  0  0  0  0  0  0  0  0  0
   -3.2727   -2.9752   -2.2193 H   0  0  0  0  0  0  0  0  0  0  0  0
   -2.9645   -4.6800   -0.4595 H   0  0  0  0  0  0  0  0  0  0  0  0
   -1.7579   -4.1141    1.6129 H   0  0  0  0  0  0  0  0  0  0  0  0
   -1.6055    0.4984    2.4066 H   0  0  0  0  0  0  0  0  0  0  0  0
   -2.8704    0.9945    1.2556 H   0  0  0  0  0  0  0  0  0  0  0  0
   -0.3557    2.6011    2.0647 H   0  0  0  0  0  0  0  0  0  0  0  0
   -2.0600    2.9422    2.4782 H   0  0  0  0  0  0  0  0  0  0  0  0
   -2.6225    3.4223    0.1405 H   0  0  0  0  0  0  0  0  0  0  0  0
   -1.1794    4.3865    0.6103 H   0  0  0  0  0  0  0  0  0  0  0  0
    0.3354    2.7738   -0.5078 H   0  0  0  0  0  0  0  0  0  0  0  0
   -0.9250    3.3396   -1.6530 H   0  0  0  0  0  0  0  0  0  0  0  0
   -2.2841    1.3404   -1.2547 H   0  0  0  0  0  0  0  0  0  0  0  0
   -0.6495    0.8914   -1.8564 H   0  0  0  0  0  0  0  0  0  0  0  0
  1  2  1  0
  2  3  1  0
  2  4  1  0
  2  5  1  0
  5  6  1  0
  6  7  2  0
  6  8  1  0
  8  9  1  0
  9 10  2  0
 10 11  1  0
 11 12  2  0
 12 13  1  0
 13 14  2  0
 14 15  1  0
  8 16  1  0
 16 17  1  0
 17 18  1  0
 18 19  1  0
 19 20  1  0
 20  8  1  0
 14  9  1  0
  1 21  1  0
  1 22  1  0
  1 23  1  0
  3 24  1  0
  3 25  1  0
  3 26  1  0
  4 27  1  0
  4 28  1  0
  4 29  1  0
 10 30  1  0
 11 31  1  0
 12 32  1  0
 13 33  1  0
 16 34  1  0
 16 35  1  0
 17 36  1  0
 17 37  1  0
 18 38  1  0
 18 39  1  0
 19 40  1  0
 19 41  1  0
 20 42  1  0
 20 43  1  0
M  RAD  1  15   3
M  END
$$$$
