
     RDKit          3D

 40 41  0  0  0  0  0  0  0  0999 V2000
   -2.8997    1.5936   -0.7887 C   0  0  0  0  0  0  0  0  0  0  0  0
   -3.1467    0.2113   -0.1461 C   0  0  0  0  0  0  0  0  0  0  0  0
   -3.9078   -0.6898   -1.1431 C   0  0  0  0  0  0  0  0  0  0  0  0
   -4.0595    0.4221    1.0861 C   0  0  0  0  0  0  0  0  0  0  0  0
   -1.7929   -0.4390    0.2076 C   0  0  0  0  0  0  0  0  0  0  0  0
   -1.4303   -0.7774    1.5313 C   0  0  0  0  0  0  0  0  0  0  0  0
   -0.1872   -1.3470    1.8111 C   0  0  0  0  0  0  0  0  0  0  0  0
    0.7269   -1.5955    0.7874 C   0  0  0  0  0  0  0  0  0  0  0  0
    1.9957   -2.1591    1.1136 N   0  0  0  0  0  1  0  0  0  0  0  0
    0.3934   -1.2785   -0.5427 C   0  0  0  0  0  0  0  0  0  0  0  0
    1.3768   -1.4788   -1.6747 C   0  0  0  0  0  0  0  0  0  0  0  0
    2.0677   -0.1654   -2.0690 C   0  0  0  0  0  0  0  0  0  0  0  0
    2.8998    0.3907   -0.9420 C   0  0  0  0  0  0  0  0  0  0  0  0
    4.1923   -0.1059   -0.7049 C   0  0  0  0  0  0  0  0  0  0  0  0
    4.9460    0.3773    0.3692 C   0  0  0  0  0  0  0  0  0  0  0  0
    4.4128    1.3523    1.2168 C   0  0  0  0  0  0  0  0  0  0  0  0
    3.1243    1.8450    0.9927 C   0  0  0  0  0  0  0  0  0  0  0  0
    2.3679    1.3659   -0.0810 C   0  0  0  0  0  0  0  0  0  0  0  0
   -0.8572   -0.7015   -0.8177 C   0  0  0  0  0  0  0  0  0  0  0  0
   -2.3402    1.5066   -1.7435 H   0  0  0  0  0  0  0  0  0  0  0  0
   -2.3145    2.2407   -0.0998 H   0  0  0  0  0  0  0  0  0  0  0  0
   -3.8626    2.1021   -1.0128 H   0  0  0  0  0  0  0  0  0  0  0  0
   -3.3601   -0.7930   -2.1029 H   0  0  0  0  0  0  0  0  0  0  0  0
   -4.0530   -1.7045   -0.7131 H   0  0  0  0  0  0  0  0  0  0  0  0
   -4.9074   -0.2631   -1.3767 H   0  0  0  0  0  0  0  0  0  0  0  0
   -3.5793    1.1007    1.8239 H   0  0  0  0  0  0  0  0  0  0  0  0
   -5.0245    0.8864    0.7871 H   0  0  0  0  0  0  0  0  0  0  0  0
   -4.2937   -0.5478    1.5758 H   0  0  0  0  0  0  0  0  0  0  0  0
   -2.0909   -0.6060    2.3677 H   0  0  0  0  0  0  0  0  0  0  0  0
    0.0686   -1.5906    2.8349 H   0  0  0  0  0  0  0  0  0  0  0  0
    2.1415   -2.2426   -1.4169 H   0  0  0  0  0  0  0  0  0  0  0  0
    0.8333   -1.8730   -2.5609 H   0  0  0  0  0  0  0  0  0  0  0  0
    1.3060    0.5784   -2.3913 H   0  0  0  0  0  0  0  0  0  0  0  0
    2.7203   -0.3539   -2.9492 H   0  0  0  0  0  0  0  0  0  0  0  0
    4.6115   -0.8703   -1.3474 H   0  0  0  0  0  0  0  0  0  0  0  0
    5.9417   -0.0077    0.5474 H   0  0  0  0  0  0  0  0  0  0  0  0
    4.9965    1.7231    2.0494 H   0  0  0  0  0  0  0  0  0  0  0  0
    2.7098    2.5950    1.6539 H   0  0  0  0  0  0  0  0  0  0  0  0
    1.3654    1.7462   -0.2350 H   0  0  0  0  0  0  0  0  0  0  0  0
   -1.0907   -0.4468   -1.8430 H   0  0  0  0  0  0  0  0  0  0  0  0
  1  2  1  0
  2  3  1  0
  2  4  1  0
  2  5  1  0
  5  6  1  0
  6  7  2  0
  7  8  1  0
  8  9  1  0
  8 10  2  0
 10 11  1  0
 11 12  1  0
 12 13  1  0
 13 14  2  0
 14 15  1  0
 15 16  2  0
 16 17  1  0
 17 18  2  0
 10 19  1  0
 19  5  2  0
 18 13  1  0
  1 20  1  0
  1 21  1  0
  1 22  1  0
  3 23  1  0
  3 24  1  0
  3 25  1  0
  4 26  1  0
  4 27  1  0
  4 28  1  0
  6 29  1  0
  7 30  1  0
 11 31  1  0
 11 32  1  0
 12 33  1  0
 12 34  1  0
 14 35  1  0
 15 36  1  0
 16 37  1  0
 17 38  1  0
 18 39  1  0
 19 40  1  0
M  RAD  1   9   3
M  END
$$$$
