
     RDKit          3D

 40 41  0  0  0  0  0  0  0  0999 V2000
   -4.6684   -0.6761    0.5423 C   0  0  0  0  0  0  0  0  0  0  0  0
   -3.5468   -0.3545   -0.4694 C   0  0  0  0  0  0  0  0  0  0  0  0
   -3.1001   -1.6892   -1.1137 C   0  0  0  0  0  0  0  0  0  0  0  0
   -4.1114    0.5417   -1.5931 C   0  0  0  0  0  0  0  0  0  0  0  0
   -2.4002    0.3856    0.2516 C   0  0  0  0  0  0  0  0  0  0  0  0
   -2.6604    1.6183    0.8883 C   0  0  0  0  0  0  0  0  0  0  0  0
   -1.6478    2.3219    1.5405 C   0  0  0  0  0  0  0  0  0  0  0  0
   -0.3489    1.8161    1.5822 C   0  0  0  0  0  0  0  0  0  0  0  0
    0.6688    2.5671    2.2411 N   0  0  0  0  0  1  0  0  0  0  0  0
   -0.0571    0.5819    0.9733 C   0  0  0  0  0  0  0  0  0  0  0  0
    1.3464    0.0249    0.9721 C   0  0  0  0  0  0  0  0  0  0  0  0
    2.1367    0.5593   -0.2261 C   0  0  0  0  0  0  0  0  0  0  0  0
    3.5345    0.0019   -0.2290 C   0  0  0  0  0  0  0  0  0  0  0  0
    3.8114   -1.2142   -0.8760 C   0  0  0  0  0  0  0  0  0  0  0  0
    5.1040   -1.7472   -0.8495 C   0  0  0  0  0  0  0  0  0  0  0  0
    6.1248   -1.0764   -0.1702 C   0  0  0  0  0  0  0  0  0  0  0  0
    5.8537    0.1267    0.4876 C   0  0  0  0  0  0  0  0  0  0  0  0
    4.5626    0.6632    0.4637 C   0  0  0  0  0  0  0  0  0  0  0  0
   -1.0773   -0.1154    0.3029 C   0  0  0  0  0  0  0  0  0  0  0  0
   -4.2684   -1.2853    1.3816 H   0  0  0  0  0  0  0  0  0  0  0  0
   -5.4875   -1.2482    0.0547 H   0  0  0  0  0  0  0  0  0  0  0  0
   -5.1158    0.2478    0.9645 H   0  0  0  0  0  0  0  0  0  0  0  0
   -2.3169   -1.5156   -1.8831 H   0  0  0  0  0  0  0  0  0  0  0  0
   -3.9557   -2.1894   -1.6178 H   0  0  0  0  0  0  0  0  0  0  0  0
   -2.7116   -2.3904   -0.3438 H   0  0  0  0  0  0  0  0  0  0  0  0
   -3.3062    0.8180   -2.3079 H   0  0  0  0  0  0  0  0  0  0  0  0
   -4.9114    0.0127   -2.1553 H   0  0  0  0  0  0  0  0  0  0  0  0
   -4.5532    1.4759   -1.1878 H   0  0  0  0  0  0  0  0  0  0  0  0
   -3.6521    2.0494    0.8799 H   0  0  0  0  0  0  0  0  0  0  0  0
   -1.8757    3.2696    2.0126 H   0  0  0  0  0  0  0  0  0  0  0  0
    1.8665    0.2913    1.9181 H   0  0  0  0  0  0  0  0  0  0  0  0
    1.3119   -1.0864    0.9287 H   0  0  0  0  0  0  0  0  0  0  0  0
    2.1755    1.6703   -0.1861 H   0  0  0  0  0  0  0  0  0  0  0  0
    1.6186    0.2810   -1.1706 H   0  0  0  0  0  0  0  0  0  0  0  0
    3.0271   -1.7485   -1.3979 H   0  0  0  0  0  0  0  0  0  0  0  0
    5.3135   -2.6823   -1.3528 H   0  0  0  0  0  0  0  0  0  0  0  0
    7.1243   -1.4910   -0.1495 H   0  0  0  0  0  0  0  0  0  0  0  0
    6.6434    0.6418    1.0191 H   0  0  0  0  0  0  0  0  0  0  0  0
    4.3633    1.5913    0.9852 H   0  0  0  0  0  0  0  0  0  0  0  0
   -0.8142   -1.0475   -0.1749 H   0  0  0  0  0  0  0  0  0  0  0  0
  1  2  1  0
  2  3  1  0
  2  4  1  0
  2  5  1  0
  5  6  1  0
  6  7  2  0
  7  8  1  0
  8  9  1  0
  8 10  2  0
 10 11  1  0
 11 12  1  0
 12 13  1  0
 13 14  2  0
 14 15  1  0
 15 16  2  0
 16 17  1  0
 17 18  2  0
 10 19  1  0
 19  5  2  0
 18 13  1  0
  1 20  1  0
  1 21  1  0
  1 22  1  0
  3 23  1  0
  3 24  1  0
  3 25  1  0
  4 26  1  0
  4 27  1  0
  4 28  1  0
  6 29  1  0
  7 30  1  0
 11 31  1  0
 11 32  1  0
 12 33  1  0
 12 34  1  0
 14 35  1  0
 15 36  1  0
 16 37  1  0
 17 38  1  0
 18 39  1  0
 19 40  1  0
M  RAD  1   9   3
M  END
$$$$
