
     RDKit          3D

 40 41  0  0  0  0  0  0  0  0999 V2000
   -1.7921    0.2770   -1.9671 C   0  0  0  0  0  0  0  0  0  0  0  0
   -2.2579   -0.5556   -0.7477 C   0  0  0  0  0  0  0  0  0  0  0  0
   -2.0193   -2.0442   -1.0817 C   0  0  0  0  0  0  0  0  0  0  0  0
   -3.7700   -0.3064   -0.5595 C   0  0  0  0  0  0  0  0  0  0  0  0
   -1.5100   -0.1979    0.5536 C   0  0  0  0  0  0  0  0  0  0  0  0
   -1.8245   -0.8795    1.7489 C   0  0  0  0  0  0  0  0  0  0  0  0
   -1.1311   -0.6197    2.9315 C   0  0  0  0  0  0  0  0  0  0  0  0
   -0.1008    0.3200    2.9556 C   0  0  0  0  0  0  0  0  0  0  0  0
    0.6173    0.5345    4.1688 N   0  0  0  0  0  1  0  0  0  0  0  0
    0.2261    1.0313    1.7874 C   0  0  0  0  0  0  0  0  0  0  0  0
    1.3963    1.9894    1.7541 C   0  0  0  0  0  0  0  0  0  0  0  0
    2.7179    1.2599    1.4669 C   0  0  0  0  0  0  0  0  0  0  0  0
    2.7014    0.5839    0.1183 C   0  0  0  0  0  0  0  0  0  0  0  0
    2.3903   -0.7832    0.0130 C   0  0  0  0  0  0  0  0  0  0  0  0
    2.2880   -1.3877   -1.2434 C   0  0  0  0  0  0  0  0  0  0  0  0
    2.4956   -0.6345   -2.4019 C   0  0  0  0  0  0  0  0  0  0  0  0
    2.8048    0.7251   -2.3059 C   0  0  0  0  0  0  0  0  0  0  0  0
    2.9043    1.3348   -1.0515 C   0  0  0  0  0  0  0  0  0  0  0  0
   -0.4841    0.7739    0.6016 C   0  0  0  0  0  0  0  0  0  0  0  0
   -1.9638    1.3616   -1.7951 H   0  0  0  0  0  0  0  0  0  0  0  0
   -2.3590   -0.0093   -2.8797 H   0  0  0  0  0  0  0  0  0  0  0  0
   -0.7144    0.1030   -2.1783 H   0  0  0  0  0  0  0  0  0  0  0  0
   -2.4291   -2.7102   -0.2937 H   0  0  0  0  0  0  0  0  0  0  0  0
   -2.5136   -2.3181   -2.0390 H   0  0  0  0  0  0  0  0  0  0  0  0
   -0.9307   -2.2481   -1.1794 H   0  0  0  0  0  0  0  0  0  0  0  0
   -3.9542    0.7522   -0.2749 H   0  0  0  0  0  0  0  0  0  0  0  0
   -4.1971   -0.9593    0.2299 H   0  0  0  0  0  0  0  0  0  0  0  0
   -4.3245   -0.5170   -1.4998 H   0  0  0  0  0  0  0  0  0  0  0  0
   -2.6019   -1.6308    1.7717 H   0  0  0  0  0  0  0  0  0  0  0  0
   -1.3866   -1.1667    3.8306 H   0  0  0  0  0  0  0  0  0  0  0  0
    1.2297    2.7743    0.9837 H   0  0  0  0  0  0  0  0  0  0  0  0
    1.4796    2.5228    2.7253 H   0  0  0  0  0  0  0  0  0  0  0  0
    3.5492    1.9972    1.4970 H   0  0  0  0  0  0  0  0  0  0  0  0
    2.9178    0.5178    2.2709 H   0  0  0  0  0  0  0  0  0  0  0  0
    2.2052   -1.3739    0.9016 H   0  0  0  0  0  0  0  0  0  0  0  0
    2.0392   -2.4383   -1.3190 H   0  0  0  0  0  0  0  0  0  0  0  0
    2.4120   -1.1031   -3.3738 H   0  0  0  0  0  0  0  0  0  0  0  0
    2.9588    1.3087   -3.2043 H   0  0  0  0  0  0  0  0  0  0  0  0
    3.1248    2.3934   -0.9909 H   0  0  0  0  0  0  0  0  0  0  0  0
   -0.1939    1.3223   -0.2820 H   0  0  0  0  0  0  0  0  0  0  0  0
  1  2  1  0
  2  3  1  0
  2  4  1  0
  2  5  1  0
  5  6  1  0
  6  7  2  0
  7  8  1  0
  8  9  1  0
  8 10  2  0
 10 11  1  0
 11 12  1  0
 12 13  1  0
 13 14  2  0
 14 15  1  0
 15 16  2  0
 16 17  1  0
 17 18  2  0
 10 19  1  0
 19  5  2  0
 18 13  1  0
  1 20  1  0
  1 21  1  0
  1 22  1  0
  3 23  1  0
  3 24  1  0
  3 25  1  0
  4 26  1  0
  4 27  1  0
  4 28  1  0
  6 29  1  0
  7 30  1  0
 11 31  1  0
 11 32  1  0
 12 33  1  0
 12 34  1  0
 14 35  1  0
 15 36  1  0
 16 37  1  0
 17 38  1  0
 18 39  1  0
 19 40  1  0
M  RAD  1   9   3
M  END
$$$$
