
     RDKit          3D

 40 41  0  0  0  0  0  0  0  0999 V2000
   -4.2942   -1.0804    0.5673 C   0  0  0  0  0  0  0  0  0  0  0  0
   -3.5441   -0.2136   -0.4675 C   0  0  0  0  0  0  0  0  0  0  0  0
   -3.0754   -1.1473   -1.6098 C   0  0  0  0  0  0  0  0  0  0  0  0
   -4.5197    0.8170   -1.0767 C   0  0  0  0  0  0  0  0  0  0  0  0
   -2.3816    0.5265    0.2276 C   0  0  0  0  0  0  0  0  0  0  0  0
   -2.6589    1.4149    1.2890 C   0  0  0  0  0  0  0  0  0  0  0  0
   -1.6342    2.0934    1.9489 C   0  0  0  0  0  0  0  0  0  0  0  0
   -0.3053    1.9113    1.5675 C   0  0  0  0  0  0  0  0  0  0  0  0
    0.7217    2.6053    2.2730 N   0  0  0  0  0  1  0  0  0  0  0  0
    0.0065    1.0468    0.5025 C   0  0  0  0  0  0  0  0  0  0  0  0
    1.4381    0.8029    0.0889 C   0  0  0  0  0  0  0  0  0  0  0  0
    2.0490   -0.3366    0.9100 C   0  0  0  0  0  0  0  0  0  0  0  0
    3.4748   -0.5818    0.4960 C   0  0  0  0  0  0  0  0  0  0  0  0
    3.7663   -1.4783   -0.5459 C   0  0  0  0  0  0  0  0  0  0  0  0
    5.0893   -1.6800   -0.9515 C   0  0  0  0  0  0  0  0  0  0  0  0
    6.1275   -0.9822   -0.3279 C   0  0  0  0  0  0  0  0  0  0  0  0
    5.8440   -0.0783    0.6997 C   0  0  0  0  0  0  0  0  0  0  0  0
    4.5224    0.1265    1.1084 C   0  0  0  0  0  0  0  0  0  0  0  0
   -1.0282    0.3524   -0.1486 C   0  0  0  0  0  0  0  0  0  0  0  0
   -5.1109   -1.6570    0.0810 H   0  0  0  0  0  0  0  0  0  0  0  0
   -3.5959   -1.8001    1.0468 H   0  0  0  0  0  0  0  0  0  0  0  0
   -4.7554   -0.4592    1.3632 H   0  0  0  0  0  0  0  0  0  0  0  0
   -2.5534   -0.5707   -2.4039 H   0  0  0  0  0  0  0  0  0  0  0  0
   -3.9428   -1.6563   -2.0839 H   0  0  0  0  0  0  0  0  0  0  0  0
   -2.3975   -1.9384   -1.2224 H   0  0  0  0  0  0  0  0  0  0  0  0
   -3.9853    1.4782   -1.7927 H   0  0  0  0  0  0  0  0  0  0  0  0
   -5.3439    0.3065   -1.6208 H   0  0  0  0  0  0  0  0  0  0  0  0
   -4.9836    1.4531   -0.2943 H   0  0  0  0  0  0  0  0  0  0  0  0
   -3.6743    1.5856    1.6196 H   0  0  0  0  0  0  0  0  0  0  0  0
   -1.8769    2.7620    2.7655 H   0  0  0  0  0  0  0  0  0  0  0  0
    2.0393    1.7289    0.2202 H   0  0  0  0  0  0  0  0  0  0  0  0
    1.4804    0.5455   -0.9928 H   0  0  0  0  0  0  0  0  0  0  0  0
    1.4508   -1.2637    0.7669 H   0  0  0  0  0  0  0  0  0  0  0  0
    2.0106   -0.0829    1.9925 H   0  0  0  0  0  0  0  0  0  0  0  0
    2.9700   -2.0180   -1.0435 H   0  0  0  0  0  0  0  0  0  0  0  0
    5.3094   -2.3747   -1.7517 H   0  0  0  0  0  0  0  0  0  0  0  0
    7.1507   -1.1386   -0.6440 H   0  0  0  0  0  0  0  0  0  0  0  0
    6.6481    0.4665    1.1772 H   0  0  0  0  0  0  0  0  0  0  0  0
    4.3150    0.8367    1.8993 H   0  0  0  0  0  0  0  0  0  0  0  0
   -0.7524   -0.3220   -0.9456 H   0  0  0  0  0  0  0  0  0  0  0  0
  1  2  1  0
  2  3  1  0
  2  4  1  0
  2  5  1  0
  5  6  1  0
  6  7  2  0
  7  8  1  0
  8  9  1  0
  8 10  2  0
 10 11  1  0
 11 12  1  0
 12 13  1  0
 13 14  2  0
 14 15  1  0
 15 16  2  0
 16 17  1  0
 17 18  2  0
 10 19  1  0
 19  5  2  0
 18 13  1  0
  1 20  1  0
  1 21  1  0
  1 22  1  0
  3 23  1  0
  3 24  1  0
  3 25  1  0
  4 26  1  0
  4 27  1  0
  4 28  1  0
  6 29  1  0
  7 30  1  0
 11 31  1  0
 11 32  1  0
 12 33  1  0
 12 34  1  0
 14 35  1  0
 15 36  1  0
 16 37  1  0
 17 38  1  0
 18 39  1  0
 19 40  1  0
M  RAD  1   9   3
M  END
$$$$
