
     RDKit          3D

 40 41  0  0  0  0  0  0  0  0999 V2000
    1.1904    1.9451    0.7968 C   0  0  0  0  0  0  0  0  0  0  0  0
    2.1731    0.7545    0.8525 C   0  0  0  0  0  0  0  0  0  0  0  0
    3.5541    1.2620    0.3722 C   0  0  0  0  0  0  0  0  0  0  0  0
    2.3291    0.2860    2.3157 C   0  0  0  0  0  0  0  0  0  0  0  0
    1.6232   -0.4044   -0.0046 C   0  0  0  0  0  0  0  0  0  0  0  0
    2.3120   -0.9219   -1.1255 C   0  0  0  0  0  0  0  0  0  0  0  0
    1.7602   -1.9472   -1.8958 C   0  0  0  0  0  0  0  0  0  0  0  0
    0.5114   -2.4812   -1.5772 C   0  0  0  0  0  0  0  0  0  0  0  0
   -0.0384   -3.5064   -2.4020 N   0  0  0  0  0  1  0  0  0  0  0  0
   -0.1921   -1.9989   -0.4597 C   0  0  0  0  0  0  0  0  0  0  0  0
   -1.5804   -2.4997   -0.1299 C   0  0  0  0  0  0  0  0  0  0  0  0
   -2.6574   -1.7648   -0.9420 C   0  0  0  0  0  0  0  0  0  0  0  0
   -2.6754   -0.2870   -0.6406 C   0  0  0  0  0  0  0  0  0  0  0  0
   -3.2857    0.1884    0.5320 C   0  0  0  0  0  0  0  0  0  0  0  0
   -3.2451    1.5508    0.8444 C   0  0  0  0  0  0  0  0  0  0  0  0
   -2.5916    2.4459   -0.0070 C   0  0  0  0  0  0  0  0  0  0  0  0
   -1.9768    1.9801   -1.1722 C   0  0  0  0  0  0  0  0  0  0  0  0
   -2.0151    0.6190   -1.4886 C   0  0  0  0  0  0  0  0  0  0  0  0
    0.3697   -0.9703    0.3146 C   0  0  0  0  0  0  0  0  0  0  0  0
    0.2044    1.6830    1.2342 H   0  0  0  0  0  0  0  0  0  0  0  0
    1.5872    2.8115    1.3690 H   0  0  0  0  0  0  0  0  0  0  0  0
    1.0304    2.2651   -0.2557 H   0  0  0  0  0  0  0  0  0  0  0  0
    4.3121    0.4503    0.4184 H   0  0  0  0  0  0  0  0  0  0  0  0
    3.9151    2.0925    1.0173 H   0  0  0  0  0  0  0  0  0  0  0  0
    3.4938    1.6509   -0.6673 H   0  0  0  0  0  0  0  0  0  0  0  0
    1.3516    0.0121    2.7644 H   0  0  0  0  0  0  0  0  0  0  0  0
    2.7672    1.0923    2.9433 H   0  0  0  0  0  0  0  0  0  0  0  0
    2.9980   -0.6002    2.3681 H   0  0  0  0  0  0  0  0  0  0  0  0
    3.2761   -0.5433   -1.4298 H   0  0  0  0  0  0  0  0  0  0  0  0
    2.3044   -2.3203   -2.7547 H   0  0  0  0  0  0  0  0  0  0  0  0
   -1.7868   -2.3786    0.9564 H   0  0  0  0  0  0  0  0  0  0  0  0
   -1.6490   -3.5890   -0.3385 H   0  0  0  0  0  0  0  0  0  0  0  0
   -2.4908   -1.9379   -2.0279 H   0  0  0  0  0  0  0  0  0  0  0  0
   -3.6507   -2.2001   -0.6973 H   0  0  0  0  0  0  0  0  0  0  0  0
   -3.7824   -0.4974    1.2071 H   0  0  0  0  0  0  0  0  0  0  0  0
   -3.7151    1.9118    1.7500 H   0  0  0  0  0  0  0  0  0  0  0  0
   -2.5565    3.4992    0.2391 H   0  0  0  0  0  0  0  0  0  0  0  0
   -1.4624    2.6727   -1.8257 H   0  0  0  0  0  0  0  0  0  0  0  0
   -1.5174    0.2692   -2.3846 H   0  0  0  0  0  0  0  0  0  0  0  0
   -0.1944   -0.5938    1.1575 H   0  0  0  0  0  0  0  0  0  0  0  0
  1  2  1  0
  2  3  1  0
  2  4  1  0
  2  5  1  0
  5  6  1  0
  6  7  2  0
  7  8  1  0
  8  9  1  0
  8 10  2  0
 10 11  1  0
 11 12  1  0
 12 13  1  0
 13 14  2  0
 14 15  1  0
 15 16  2  0
 16 17  1  0
 17 18  2  0
 10 19  1  0
 19  5  2  0
 18 13  1  0
  1 20  1  0
  1 21  1  0
  1 22  1  0
  3 23  1  0
  3 24  1  0
  3 25  1  0
  4 26  1  0
  4 27  1  0
  4 28  1  0
  6 29  1  0
  7 30  1  0
 11 31  1  0
 11 32  1  0
 12 33  1  0
 12 34  1  0
 14 35  1  0
 15 36  1  0
 16 37  1  0
 17 38  1  0
 18 39  1  0
 19 40  1  0
M  RAD  1   9   3
M  END
$$$$
