
     RDKit          3D

 40 41  0  0  0  0  0  0  0  0999 V2000
    3.4215    1.6299    0.1393 C   0  0  0  0  0  0  0  0  0  0  0  0
    2.3132    0.7088   -0.4250 C   0  0  0  0  0  0  0  0  0  0  0  0
    2.9859   -0.3050   -1.3761 C   0  0  0  0  0  0  0  0  0  0  0  0
    1.3322    1.5922   -1.2272 C   0  0  0  0  0  0  0  0  0  0  0  0
    1.5393   -0.0491    0.6735 C   0  0  0  0  0  0  0  0  0  0  0  0
    1.8114    0.1113    2.0514 C   0  0  0  0  0  0  0  0  0  0  0  0
    1.0613   -0.5667    3.0142 C   0  0  0  0  0  0  0  0  0  0  0  0
    0.0213   -1.4161    2.6355 C   0  0  0  0  0  0  0  0  0  0  0  0
   -0.7458   -2.0701    3.6442 N   0  0  0  0  0  1  0  0  0  0  0  0
   -0.2644   -1.6089    1.2726 C   0  0  0  0  0  0  0  0  0  0  0  0
   -1.4322   -2.4606    0.8282 C   0  0  0  0  0  0  0  0  0  0  0  0
   -2.7496   -1.6708    0.8425 C   0  0  0  0  0  0  0  0  0  0  0  0
   -2.7124   -0.5018   -0.1101 C   0  0  0  0  0  0  0  0  0  0  0  0
   -2.8914   -0.7065   -1.4882 C   0  0  0  0  0  0  0  0  0  0  0  0
   -2.7915    0.3673   -2.3784 C   0  0  0  0  0  0  0  0  0  0  0  0
   -2.5074    1.6496   -1.9007 C   0  0  0  0  0  0  0  0  0  0  0  0
   -2.3220    1.8604   -0.5318 C   0  0  0  0  0  0  0  0  0  0  0  0
   -2.4211    0.7899    0.3617 C   0  0  0  0  0  0  0  0  0  0  0  0
    0.4963   -0.9277    0.3079 C   0  0  0  0  0  0  0  0  0  0  0  0
    3.9559    2.1533   -0.6833 H   0  0  0  0  0  0  0  0  0  0  0  0
    4.1756    1.0411    0.7052 H   0  0  0  0  0  0  0  0  0  0  0  0
    2.9890    2.4093    0.8033 H   0  0  0  0  0  0  0  0  0  0  0  0
    2.2364   -0.9288   -1.9063 H   0  0  0  0  0  0  0  0  0  0  0  0
    3.5872    0.2195   -2.1501 H   0  0  0  0  0  0  0  0  0  0  0  0
    3.6613   -0.9794   -0.8065 H   0  0  0  0  0  0  0  0  0  0  0  0
    0.8042    2.2972   -0.5491 H   0  0  0  0  0  0  0  0  0  0  0  0
    0.5705    0.9822   -1.7561 H   0  0  0  0  0  0  0  0  0  0  0  0
    1.8735    2.1857   -1.9957 H   0  0  0  0  0  0  0  0  0  0  0  0
    2.5951    0.7624    2.4082 H   0  0  0  0  0  0  0  0  0  0  0  0
    1.2843   -0.4200    4.0639 H   0  0  0  0  0  0  0  0  0  0  0  0
   -1.2508   -2.8623   -0.1931 H   0  0  0  0  0  0  0  0  0  0  0  0
   -1.5315   -3.3439    1.4950 H   0  0  0  0  0  0  0  0  0  0  0  0
   -2.9664   -1.3229    1.8763 H   0  0  0  0  0  0  0  0  0  0  0  0
   -3.5794   -2.3518    0.5535 H   0  0  0  0  0  0  0  0  0  0  0  0
   -3.0973   -1.6979   -1.8721 H   0  0  0  0  0  0  0  0  0  0  0  0
   -2.9283    0.2042   -3.4396 H   0  0  0  0  0  0  0  0  0  0  0  0
   -2.4252    2.4785   -2.5916 H   0  0  0  0  0  0  0  0  0  0  0  0
   -2.0922    2.8520   -0.1640 H   0  0  0  0  0  0  0  0  0  0  0  0
   -2.2555    0.9642    1.4177 H   0  0  0  0  0  0  0  0  0  0  0  0
    0.2489   -1.0685   -0.7359 H   0  0  0  0  0  0  0  0  0  0  0  0
  1  2  1  0
  2  3  1  0
  2  4  1  0
  2  5  1  0
  5  6  1  0
  6  7  2  0
  7  8  1  0
  8  9  1  0
  8 10  2  0
 10 11  1  0
 11 12  1  0
 12 13  1  0
 13 14  2  0
 14 15  1  0
 15 16  2  0
 16 17  1  0
 17 18  2  0
 10 19  1  0
 19  5  2  0
 18 13  1  0
  1 20  1  0
  1 21  1  0
  1 22  1  0
  3 23  1  0
  3 24  1  0
  3 25  1  0
  4 26  1  0
  4 27  1  0
  4 28  1  0
  6 29  1  0
  7 30  1  0
 11 31  1  0
 11 32  1  0
 12 33  1  0
 12 34  1  0
 14 35  1  0
 15 36  1  0
 16 37  1  0
 17 38  1  0
 18 39  1  0
 19 40  1  0
M  RAD  1   9   3
M  END
$$$$
