
     RDKit          3D

 40 41  0  0  0  0  0  0  0  0999 V2000
   -3.7893   -0.4888   -0.1488 C   0  0  0  0  0  0  0  0  0  0  0  0
   -2.3085   -0.7526    0.1999 C   0  0  0  0  0  0  0  0  0  0  0  0
   -1.7859   -1.8461   -0.7636 C   0  0  0  0  0  0  0  0  0  0  0  0
   -2.2096   -1.3114    1.6360 C   0  0  0  0  0  0  0  0  0  0  0  0
   -1.5140    0.5670    0.1095 C   0  0  0  0  0  0  0  0  0  0  0  0
   -1.8727    1.6551    0.9339 C   0  0  0  0  0  0  0  0  0  0  0  0
   -1.1429    2.8442    0.9173 C   0  0  0  0  0  0  0  0  0  0  0  0
   -0.0317    2.9807    0.0853 C   0  0  0  0  0  0  0  0  0  0  0  0
    0.7189    4.1926    0.1201 N   0  0  0  0  0  1  0  0  0  0  0  0
    0.3422    1.9235   -0.7631 C   0  0  0  0  0  0  0  0  0  0  0  0
    1.5935    2.0023   -1.6095 C   0  0  0  0  0  0  0  0  0  0  0  0
    2.8400    1.5740   -0.8194 C   0  0  0  0  0  0  0  0  0  0  0  0
    2.7445    0.1405   -0.3590 C   0  0  0  0  0  0  0  0  0  0  0  0
    2.3100   -0.1594    0.9441 C   0  0  0  0  0  0  0  0  0  0  0  0
    2.1367   -1.4887    1.3406 C   0  0  0  0  0  0  0  0  0  0  0  0
    2.3959   -2.5269    0.4420 C   0  0  0  0  0  0  0  0  0  0  0  0
    2.8277   -2.2374   -0.8553 C   0  0  0  0  0  0  0  0  0  0  0  0
    2.9986   -0.9091   -1.2575 C   0  0  0  0  0  0  0  0  0  0  0  0
   -0.4041    0.7321   -0.7508 C   0  0  0  0  0  0  0  0  0  0  0  0
   -4.3731   -1.4348   -0.1318 H   0  0  0  0  0  0  0  0  0  0  0  0
   -3.8734   -0.0445   -1.1642 H   0  0  0  0  0  0  0  0  0  0  0  0
   -4.2630    0.2055    0.5761 H   0  0  0  0  0  0  0  0  0  0  0  0
   -1.8567   -1.5095   -1.8206 H   0  0  0  0  0  0  0  0  0  0  0  0
   -2.3885   -2.7756   -0.6690 H   0  0  0  0  0  0  0  0  0  0  0  0
   -0.7312   -2.1097   -0.5303 H   0  0  0  0  0  0  0  0  0  0  0  0
   -1.1452   -1.4676    1.9169 H   0  0  0  0  0  0  0  0  0  0  0  0
   -2.7394   -2.2853    1.7180 H   0  0  0  0  0  0  0  0  0  0  0  0
   -2.6672   -0.6210    2.3751 H   0  0  0  0  0  0  0  0  0  0  0  0
   -2.7143    1.5863    1.6093 H   0  0  0  0  0  0  0  0  0  0  0  0
   -1.4346    3.6581    1.5695 H   0  0  0  0  0  0  0  0  0  0  0  0
    1.7376    3.0396   -1.9807 H   0  0  0  0  0  0  0  0  0  0  0  0
    1.4881    1.3624   -2.5133 H   0  0  0  0  0  0  0  0  0  0  0  0
    3.7348    1.6915   -1.4684 H   0  0  0  0  0  0  0  0  0  0  0  0
    2.9829    2.2525    0.0502 H   0  0  0  0  0  0  0  0  0  0  0  0
    2.0843    0.6358    1.6439 H   0  0  0  0  0  0  0  0  0  0  0  0
    1.7932   -1.7136    2.3420 H   0  0  0  0  0  0  0  0  0  0  0  0
    2.2574   -3.5553    0.7493 H   0  0  0  0  0  0  0  0  0  0  0  0
    3.0217   -3.0423   -1.5523 H   0  0  0  0  0  0  0  0  0  0  0  0
    3.3145   -0.6970   -2.2714 H   0  0  0  0  0  0  0  0  0  0  0  0
   -0.0775   -0.0673   -1.3990 H   0  0  0  0  0  0  0  0  0  0  0  0
  1  2  1  0
  2  3  1  0
  2  4  1  0
  2  5  1  0
  5  6  1  0
  6  7  2  0
  7  8  1  0
  8  9  1  0
  8 10  2  0
 10 11  1  0
 11 12  1  0
 12 13  1  0
 13 14  2  0
 14 15  1  0
 15 16  2  0
 16 17  1  0
 17 18  2  0
 10 19  1  0
 19  5  2  0
 18 13  1  0
  1 20  1  0
  1 21  1  0
  1 22  1  0
  3 23  1  0
  3 24  1  0
  3 25  1  0
  4 26  1  0
  4 27  1  0
  4 28  1  0
  6 29  1  0
  7 30  1  0
 11 31  1  0
 11 32  1  0
 12 33  1  0
 12 34  1  0
 14 35  1  0
 15 36  1  0
 16 37  1  0
 17 38  1  0
 18 39  1  0
 19 40  1  0
M  RAD  1   9   3
M  END
$$$$
