
     RDKit          3D

 40 41  0  0  0  0  0  0  0  0999 V2000
   -3.0772    2.0674   -0.2214 C   0  0  0  0  0  0  0  0  0  0  0  0
   -3.5486    0.5965   -0.1201 C   0  0  0  0  0  0  0  0  0  0  0  0
   -4.5826    0.5147    1.0241 C   0  0  0  0  0  0  0  0  0  0  0  0
   -4.2319    0.2311   -1.4558 C   0  0  0  0  0  0  0  0  0  0  0  0
   -2.3966   -0.3929    0.1558 C   0  0  0  0  0  0  0  0  0  0  0  0
   -2.6775   -1.7712    0.2752 C   0  0  0  0  0  0  0  0  0  0  0  0
   -1.6617   -2.6970    0.5132 C   0  0  0  0  0  0  0  0  0  0  0  0
   -0.3385   -2.2769    0.6448 C   0  0  0  0  0  0  0  0  0  0  0  0
    0.6804   -3.2491    0.8701 N   0  0  0  0  0  1  0  0  0  0  0  0
   -0.0242   -0.9091    0.5490 C   0  0  0  0  0  0  0  0  0  0  0  0
    1.4032   -0.4273    0.6528 C   0  0  0  0  0  0  0  0  0  0  0  0
    2.0836   -0.4600   -0.7189 C   0  0  0  0  0  0  0  0  0  0  0  0
    3.5053    0.0227   -0.6159 C   0  0  0  0  0  0  0  0  0  0  0  0
    4.5411   -0.8809   -0.3252 C   0  0  0  0  0  0  0  0  0  0  0  0
    5.8572   -0.4256   -0.1972 C   0  0  0  0  0  0  0  0  0  0  0  0
    6.1462    0.9334   -0.3484 C   0  0  0  0  0  0  0  0  0  0  0  0
    5.1189    1.8403   -0.6237 C   0  0  0  0  0  0  0  0  0  0  0  0
    3.8015    1.3893   -0.7525 C   0  0  0  0  0  0  0  0  0  0  0  0
   -1.0491    0.0184    0.2923 C   0  0  0  0  0  0  0  0  0  0  0  0
   -3.9372    2.7445   -0.4167 H   0  0  0  0  0  0  0  0  0  0  0  0
   -2.3567    2.1962   -1.0580 H   0  0  0  0  0  0  0  0  0  0  0  0
   -2.6027    2.3977    0.7280 H   0  0  0  0  0  0  0  0  0  0  0  0
   -4.0969    0.7328    1.9998 H   0  0  0  0  0  0  0  0  0  0  0  0
   -5.4015    1.2505    0.8692 H   0  0  0  0  0  0  0  0  0  0  0  0
   -5.0482   -0.4911    1.0836 H   0  0  0  0  0  0  0  0  0  0  0  0
   -5.0390    0.9564   -1.6975 H   0  0  0  0  0  0  0  0  0  0  0  0
   -4.6936   -0.7776   -1.4163 H   0  0  0  0  0  0  0  0  0  0  0  0
   -3.4912    0.2436   -2.2846 H   0  0  0  0  0  0  0  0  0  0  0  0
   -3.6886   -2.1424    0.1785 H   0  0  0  0  0  0  0  0  0  0  0  0
   -1.9065   -3.7491    0.5913 H   0  0  0  0  0  0  0  0  0  0  0  0
    1.9702   -1.0576    1.3721 H   0  0  0  0  0  0  0  0  0  0  0  0
    1.4234    0.6108    1.0530 H   0  0  0  0  0  0  0  0  0  0  0  0
    2.0673   -1.4965   -1.1224 H   0  0  0  0  0  0  0  0  0  0  0  0
    1.5193    0.1808   -1.4322 H   0  0  0  0  0  0  0  0  0  0  0  0
    4.3289   -1.9351   -0.1964 H   0  0  0  0  0  0  0  0  0  0  0  0
    6.6525   -1.1261    0.0227 H   0  0  0  0  0  0  0  0  0  0  0  0
    7.1651    1.2843   -0.2476 H   0  0  0  0  0  0  0  0  0  0  0  0
    5.3430    2.8935   -0.7339 H   0  0  0  0  0  0  0  0  0  0  0  0
    3.0132    2.1034   -0.9566 H   0  0  0  0  0  0  0  0  0  0  0  0
   -0.7703    1.0576    0.2000 H   0  0  0  0  0  0  0  0  0  0  0  0
  1  2  1  0
  2  3  1  0
  2  4  1  0
  2  5  1  0
  5  6  1  0
  6  7  2  0
  7  8  1  0
  8  9  1  0
  8 10  2  0
 10 11  1  0
 11 12  1  0
 12 13  1  0
 13 14  2  0
 14 15  1  0
 15 16  2  0
 16 17  1  0
 17 18  2  0
 10 19  1  0
 19  5  2  0
 18 13  1  0
  1 20  1  0
  1 21  1  0
  1 22  1  0
  3 23  1  0
  3 24  1  0
  3 25  1  0
  4 26  1  0
  4 27  1  0
  4 28  1  0
  6 29  1  0
  7 30  1  0
 11 31  1  0
 11 32  1  0
 12 33  1  0
 12 34  1  0
 14 35  1  0
 15 36  1  0
 16 37  1  0
 17 38  1  0
 18 39  1  0
 19 40  1  0
M  RAD  1   9   3
M  END
$$$$
