
     RDKit          3D

 40 41  0  0  0  0  0  0  0  0999 V2000
   -1.9185    0.6602   -1.8659 C   0  0  0  0  0  0  0  0  0  0  0  0
   -2.2950    0.7930   -0.3700 C   0  0  0  0  0  0  0  0  0  0  0  0
   -2.0624    2.2635    0.0400 C   0  0  0  0  0  0  0  0  0  0  0  0
   -3.7943    0.4512   -0.2314 C   0  0  0  0  0  0  0  0  0  0  0  0
   -1.4680   -0.1302    0.5489 C   0  0  0  0  0  0  0  0  0  0  0  0
   -1.6966   -0.1148    1.9416 C   0  0  0  0  0  0  0  0  0  0  0  0
   -0.9306   -0.8963    2.8073 C   0  0  0  0  0  0  0  0  0  0  0  0
    0.0888   -1.7090    2.3118 C   0  0  0  0  0  0  0  0  0  0  0  0
    0.8819   -2.4649    3.2245 N   0  0  0  0  0  1  0  0  0  0  0  0
    0.3312   -1.7632    0.9277 C   0  0  0  0  0  0  0  0  0  0  0  0
    1.4863   -2.5613    0.3645 C   0  0  0  0  0  0  0  0  0  0  0  0
    2.7943   -1.7549    0.3824 C   0  0  0  0  0  0  0  0  0  0  0  0
    2.6974   -0.5139   -0.4702 C   0  0  0  0  0  0  0  0  0  0  0  0
    2.8157   -0.6049   -1.8670 C   0  0  0  0  0  0  0  0  0  0  0  0
    2.6414    0.5309   -2.6639 C   0  0  0  0  0  0  0  0  0  0  0  0
    2.3413    1.7618   -2.0739 C   0  0  0  0  0  0  0  0  0  0  0  0
    2.2177    1.8600   -0.6856 C   0  0  0  0  0  0  0  0  0  0  0  0
    2.3950    0.7280    0.1154 C   0  0  0  0  0  0  0  0  0  0  0  0
   -0.4517   -0.9826    0.0591 C   0  0  0  0  0  0  0  0  0  0  0  0
   -2.5404    1.3378   -2.4906 H   0  0  0  0  0  0  0  0  0  0  0  0
   -2.0904   -0.3768   -2.2271 H   0  0  0  0  0  0  0  0  0  0  0  0
   -0.8550    0.9378   -2.0338 H   0  0  0  0  0  0  0  0  0  0  0  0
   -0.9803    2.5130   -0.0150 H   0  0  0  0  0  0  0  0  0  0  0  0
   -2.4129    2.4591    1.0749 H   0  0  0  0  0  0  0  0  0  0  0  0
   -2.6149    2.9534   -0.6344 H   0  0  0  0  0  0  0  0  0  0  0  0
   -3.9710   -0.6175   -0.4809 H   0  0  0  0  0  0  0  0  0  0  0  0
   -4.1620    0.6341    0.7997 H   0  0  0  0  0  0  0  0  0  0  0  0
   -4.4064    1.0761   -0.9175 H   0  0  0  0  0  0  0  0  0  0  0  0
   -2.4628    0.5157    2.3716 H   0  0  0  0  0  0  0  0  0  0  0  0
   -1.1212   -0.8550    3.8726 H   0  0  0  0  0  0  0  0  0  0  0  0
    1.2615   -2.8821   -0.6766 H   0  0  0  0  0  0  0  0  0  0  0  0
    1.6268   -3.4941    0.9515 H   0  0  0  0  0  0  0  0  0  0  0  0
    3.6178   -2.3974    0.0019 H   0  0  0  0  0  0  0  0  0  0  0  0
    3.0541   -1.4869    1.4301 H   0  0  0  0  0  0  0  0  0  0  0  0
    3.0282   -1.5569   -2.3374 H   0  0  0  0  0  0  0  0  0  0  0  0
    2.7303    0.4549   -3.7399 H   0  0  0  0  0  0  0  0  0  0  0  0
    2.1999    2.6383   -2.6928 H   0  0  0  0  0  0  0  0  0  0  0  0
    1.9760    2.8117   -0.2303 H   0  0  0  0  0  0  0  0  0  0  0  0
    2.2745    0.8141    1.1882 H   0  0  0  0  0  0  0  0  0  0  0  0
   -0.2256   -1.0318   -0.9955 H   0  0  0  0  0  0  0  0  0  0  0  0
  1  2  1  0
  2  3  1  0
  2  4  1  0
  2  5  1  0
  5  6  1  0
  6  7  2  0
  7  8  1  0
  8  9  1  0
  8 10  2  0
 10 11  1  0
 11 12  1  0
 12 13  1  0
 13 14  2  0
 14 15  1  0
 15 16  2  0
 16 17  1  0
 17 18  2  0
 10 19  1  0
 19  5  2  0
 18 13  1  0
  1 20  1  0
  1 21  1  0
  1 22  1  0
  3 23  1  0
  3 24  1  0
  3 25  1  0
  4 26  1  0
  4 27  1  0
  4 28  1  0
  6 29  1  0
  7 30  1  0
 11 31  1  0
 11 32  1  0
 12 33  1  0
 12 34  1  0
 14 35  1  0
 15 36  1  0
 16 37  1  0
 17 38  1  0
 18 39  1  0
 19 40  1  0
M  RAD  1   9   3
M  END
$$$$
