
     RDKit          3D

 40 41  0  0  0  0  0  0  0  0999 V2000
   -1.4783   -0.5327   -2.1250 C   0  0  0  0  0  0  0  0  0  0  0  0
   -2.1814   -0.7497   -0.7628 C   0  0  0  0  0  0  0  0  0  0  0  0
   -3.6740   -0.3985   -0.9441 C   0  0  0  0  0  0  0  0  0  0  0  0
   -2.0447   -2.2446   -0.4011 C   0  0  0  0  0  0  0  0  0  0  0  0
   -1.5838    0.1072    0.3727 C   0  0  0  0  0  0  0  0  0  0  0  0
   -2.1199    0.0118    1.6749 C   0  0  0  0  0  0  0  0  0  0  0  0
   -1.5695    0.7310    2.7363 C   0  0  0  0  0  0  0  0  0  0  0  0
   -0.4660    1.5594    2.5327 C   0  0  0  0  0  0  0  0  0  0  0  0
    0.1002    2.2500    3.6444 N   0  0  0  0  0  1  0  0  0  0  0  0
    0.0815    1.6929    1.2443 C   0  0  0  0  0  0  0  0  0  0  0  0
    1.3324    2.5090    1.0045 C   0  0  0  0  0  0  0  0  0  0  0  0
    2.6041    1.6872    1.2669 C   0  0  0  0  0  0  0  0  0  0  0  0
    2.7035    0.5005    0.3406 C   0  0  0  0  0  0  0  0  0  0  0  0
    3.1328    0.6729   -0.9858 C   0  0  0  0  0  0  0  0  0  0  0  0
    3.1440   -0.4113   -1.8689 C   0  0  0  0  0  0  0  0  0  0  0  0
    2.7210   -1.6714   -1.4371 C   0  0  0  0  0  0  0  0  0  0  0  0
    2.2884   -1.8505   -0.1206 C   0  0  0  0  0  0  0  0  0  0  0  0
    2.2791   -0.7703    0.7668 C   0  0  0  0  0  0  0  0  0  0  0  0
   -0.4848    0.9749    0.1763 C   0  0  0  0  0  0  0  0  0  0  0  0
   -1.9426   -1.1643   -2.9134 H   0  0  0  0  0  0  0  0  0  0  0  0
   -0.4038   -0.8126   -2.0663 H   0  0  0  0  0  0  0  0  0  0  0  0
   -1.5661    0.5260   -2.4520 H   0  0  0  0  0  0  0  0  0  0  0  0
   -4.2640   -0.6380   -0.0350 H   0  0  0  0  0  0  0  0  0  0  0  0
   -4.1150   -0.9740   -1.7868 H   0  0  0  0  0  0  0  0  0  0  0  0
   -3.7918    0.6852   -1.1616 H   0  0  0  0  0  0  0  0  0  0  0  0
   -2.6186   -2.4972    0.5149 H   0  0  0  0  0  0  0  0  0  0  0  0
   -0.9775   -2.5034   -0.2266 H   0  0  0  0  0  0  0  0  0  0  0  0
   -2.4302   -2.8864   -1.2229 H   0  0  0  0  0  0  0  0  0  0  0  0
   -2.9621   -0.6339    1.8827 H   0  0  0  0  0  0  0  0  0  0  0  0
   -1.9947    0.6288    3.7270 H   0  0  0  0  0  0  0  0  0  0  0  0
    1.3358    3.4035    1.6636 H   0  0  0  0  0  0  0  0  0  0  0  0
    1.3470    2.8939   -0.0391 H   0  0  0  0  0  0  0  0  0  0  0  0
    2.6220    1.3543    2.3279 H   0  0  0  0  0  0  0  0  0  0  0  0
    3.4911    2.3412    1.1208 H   0  0  0  0  0  0  0  0  0  0  0  0
    3.4441    1.6485   -1.3378 H   0  0  0  0  0  0  0  0  0  0  0  0
    3.4726   -0.2726   -2.8907 H   0  0  0  0  0  0  0  0  0  0  0  0
    2.7238   -2.5078   -2.1240 H   0  0  0  0  0  0  0  0  0  0  0  0
    1.9520   -2.8246    0.2101 H   0  0  0  0  0  0  0  0  0  0  0  0
    1.9205   -0.9186    1.7779 H   0  0  0  0  0  0  0  0  0  0  0  0
   -0.0272    1.0839   -0.7955 H   0  0  0  0  0  0  0  0  0  0  0  0
  1  2  1  0
  2  3  1  0
  2  4  1  0
  2  5  1  0
  5  6  1  0
  6  7  2  0
  7  8  1  0
  8  9  1  0
  8 10  2  0
 10 11  1  0
 11 12  1  0
 12 13  1  0
 13 14  2  0
 14 15  1  0
 15 16  2  0
 16 17  1  0
 17 18  2  0
 10 19  1  0
 19  5  2  0
 18 13  1  0
  1 20  1  0
  1 21  1  0
  1 22  1  0
  3 23  1  0
  3 24  1  0
  3 25  1  0
  4 26  1  0
  4 27  1  0
  4 28  1  0
  6 29  1  0
  7 30  1  0
 11 31  1  0
 11 32  1  0
 12 33  1  0
 12 34  1  0
 14 35  1  0
 15 36  1  0
 16 37  1  0
 17 38  1  0
 18 39  1  0
 19 40  1  0
M  RAD  1   9   3
M  END
$$$$
