
     RDKit          3D

 25 26  0  0  0  0  0  0  0  0999 V2000
   -1.5709   -2.5149   -0.1488 N   0  0  0  0  0  1  0  0  0  0  0  0
   -1.7684   -1.1039   -0.2091 C   0  0  0  0  0  0  0  0  0  0  0  0
   -2.8790   -0.5423    0.4322 C   0  0  0  0  0  0  0  0  0  0  0  0
   -3.0902    0.8380    0.3949 C   0  0  0  0  0  0  0  0  0  0  0  0
   -2.1921    1.6645   -0.2827 C   0  0  0  0  0  0  0  0  0  0  0  0
   -1.0815    1.1131   -0.9268 C   0  0  0  0  0  0  0  0  0  0  0  0
   -0.8600   -0.2753   -0.9022 C   0  0  0  0  0  0  0  0  0  0  0  0
    0.3699   -0.8465   -1.5693 C   0  0  0  0  0  0  0  0  0  0  0  0
    1.5002   -1.0970   -0.5633 C   0  0  0  0  0  0  0  0  0  0  0  0
    2.0426    0.2198    0.0129 C   0  0  0  0  0  0  0  0  0  0  0  0
    1.4655    0.6482    1.3545 C   0  0  0  0  0  0  0  0  0  0  0  0
    2.8670    0.0632    1.2816 C   0  0  0  0  0  0  0  0  0  0  0  0
   -3.5784   -1.1759    0.9632 H   0  0  0  0  0  0  0  0  0  0  0  0
   -3.9492    1.2674    0.8941 H   0  0  0  0  0  0  0  0  0  0  0  0
   -2.3544    2.7343   -0.3061 H   0  0  0  0  0  0  0  0  0  0  0  0
   -0.3889    1.7702   -1.4382 H   0  0  0  0  0  0  0  0  0  0  0  0
    0.1104   -1.8051   -2.0681 H   0  0  0  0  0  0  0  0  0  0  0  0
    0.7304   -0.1652   -2.3716 H   0  0  0  0  0  0  0  0  0  0  0  0
    1.1472   -1.7871    0.2350 H   0  0  0  0  0  0  0  0  0  0  0  0
    2.3332   -1.6067   -1.0928 H   0  0  0  0  0  0  0  0  0  0  0  0
    2.3787    1.0351   -0.6630 H   0  0  0  0  0  0  0  0  0  0  0  0
    1.4391    1.7475    1.5084 H   0  0  0  0  0  0  0  0  0  0  0  0
    0.7096   -0.0327    1.8012 H   0  0  0  0  0  0  0  0  0  0  0  0
    2.9461   -0.9656    1.6940 H   0  0  0  0  0  0  0  0  0  0  0  0
    3.6733    0.8168    1.4048 H   0  0  0  0  0  0  0  0  0  0  0  0
  1  2  1  0
  2  3  2  0
  3  4  1  0
  4  5  2  0
  5  6  1  0
  6  7  2  0
  7  8  1  0
  8  9  1  0
  9 10  1  0
 10 11  1  0
 11 12  1  0
  7  2  1  0
 12 10  1  0
  3 13  1  0
  4 14  1  0
  5 15  1  0
  6 16  1  0
  8 17  1  0
  8 18  1  0
  9 19  1  0
  9 20  1  0
 10 21  1  0
 11 22  1  0
 11 23  1  0
 12 24  1  0
 12 25  1  0
M  RAD  1   1   3
M  END
$$$$
