
     RDKit          3D

 25 26  0  0  0  0  0  0  0  0999 V2000
   -0.5314   -1.5247    1.9881 N   0  0  0  0  0  1  0  0  0  0  0  0
   -1.2545   -0.9492    0.9022 C   0  0  0  0  0  0  0  0  0  0  0  0
   -2.1696   -1.7419    0.1989 C   0  0  0  0  0  0  0  0  0  0  0  0
   -2.8841   -1.2083   -0.8760 C   0  0  0  0  0  0  0  0  0  0  0  0
   -2.6869    0.1205   -1.2554 C   0  0  0  0  0  0  0  0  0  0  0  0
   -1.7757    0.9197   -0.5603 C   0  0  0  0  0  0  0  0  0  0  0  0
   -1.0543    0.3980    0.5279 C   0  0  0  0  0  0  0  0  0  0  0  0
   -0.0467    1.2767    1.2338 C   0  0  0  0  0  0  0  0  0  0  0  0
    1.2682    1.3773    0.4507 C   0  0  0  0  0  0  0  0  0  0  0  0
    2.0155    0.0355    0.4279 C   0  0  0  0  0  0  0  0  0  0  0  0
    3.0891   -0.0726   -0.6443 C   0  0  0  0  0  0  0  0  0  0  0  0
    1.7835   -0.8365   -0.7976 C   0  0  0  0  0  0  0  0  0  0  0  0
   -2.3255   -2.7749    0.4838 H   0  0  0  0  0  0  0  0  0  0  0  0
   -3.5892   -1.8261   -1.4168 H   0  0  0  0  0  0  0  0  0  0  0  0
   -3.2382    0.5312   -2.0914 H   0  0  0  0  0  0  0  0  0  0  0  0
   -1.6280    1.9462   -0.8728 H   0  0  0  0  0  0  0  0  0  0  0  0
    0.1551    0.9138    2.2645 H   0  0  0  0  0  0  0  0  0  0  0  0
   -0.4725    2.2980    1.3430 H   0  0  0  0  0  0  0  0  0  0  0  0
    1.9201    2.1222    0.9550 H   0  0  0  0  0  0  0  0  0  0  0  0
    1.0651    1.7592   -0.5749 H   0  0  0  0  0  0  0  0  0  0  0  0
    2.2513   -0.4946    1.3755 H   0  0  0  0  0  0  0  0  0  0  0  0
    3.9531   -0.7143   -0.3705 H   0  0  0  0  0  0  0  0  0  0  0  0
    3.1862    0.7932   -1.3340 H   0  0  0  0  0  0  0  0  0  0  0  0
    1.8687   -1.9264   -0.6032 H   0  0  0  0  0  0  0  0  0  0  0  0
    1.1007   -0.4222   -1.5700 H   0  0  0  0  0  0  0  0  0  0  0  0
  1  2  1  0
  2  3  2  0
  3  4  1  0
  4  5  2  0
  5  6  1  0
  6  7  2  0
  7  8  1  0
  8  9  1  0
  9 10  1  0
 10 11  1  0
 11 12  1  0
  7  2  1  0
 12 10  1  0
  3 13  1  0
  4 14  1  0
  5 15  1  0
  6 16  1  0
  8 17  1  0
  8 18  1  0
  9 19  1  0
  9 20  1  0
 10 21  1  0
 11 22  1  0
 11 23  1  0
 12 24  1  0
 12 25  1  0
M  RAD  1   1   3
M  END
$$$$
