
     RDKit          3D

 25 26  0  0  0  0  0  0  0  0999 V2000
    1.2933    2.0351   -1.7302 N   0  0  0  0  0  1  0  0  0  0  0  0
    1.6257    1.1291   -0.6805 C   0  0  0  0  0  0  0  0  0  0  0  0
    2.5121    1.5414    0.3218 C   0  0  0  0  0  0  0  0  0  0  0  0
    2.8471    0.6756    1.3654 C   0  0  0  0  0  0  0  0  0  0  0  0
    2.2974   -0.6068    1.4135 C   0  0  0  0  0  0  0  0  0  0  0  0
    1.4128   -1.0278    0.4172 C   0  0  0  0  0  0  0  0  0  0  0  0
    1.0715   -0.1684   -0.6422 C   0  0  0  0  0  0  0  0  0  0  0  0
    0.0805   -0.6286   -1.6863 C   0  0  0  0  0  0  0  0  0  0  0  0
   -1.3338   -0.1100   -1.3982 C   0  0  0  0  0  0  0  0  0  0  0  0
   -1.9140   -0.7375   -0.1216 C   0  0  0  0  0  0  0  0  0  0  0  0
   -3.1178   -0.0061    0.4523 C   0  0  0  0  0  0  0  0  0  0  0  0
   -1.7703    0.0855    1.1505 C   0  0  0  0  0  0  0  0  0  0  0  0
    2.9400    2.5358    0.2940 H   0  0  0  0  0  0  0  0  0  0  0  0
    3.5313    1.0000    2.1388 H   0  0  0  0  0  0  0  0  0  0  0  0
    2.5541   -1.2745    2.2258 H   0  0  0  0  0  0  0  0  0  0  0  0
    0.9870   -2.0218    0.4763 H   0  0  0  0  0  0  0  0  0  0  0  0
    0.4013   -0.2676   -2.6873 H   0  0  0  0  0  0  0  0  0  0  0  0
    0.0643   -1.7394   -1.7459 H   0  0  0  0  0  0  0  0  0  0  0  0
   -1.3242    1.0016   -1.3488 H   0  0  0  0  0  0  0  0  0  0  0  0
   -1.9907   -0.3949   -2.2476 H   0  0  0  0  0  0  0  0  0  0  0  0
   -1.9363   -1.8413    0.0043 H   0  0  0  0  0  0  0  0  0  0  0  0
   -3.8491   -0.6583    0.9748 H   0  0  0  0  0  0  0  0  0  0  0  0
   -3.4193    0.9293   -0.0663 H   0  0  0  0  0  0  0  0  0  0  0  0
   -1.6970   -0.5199    2.0784 H   0  0  0  0  0  0  0  0  0  0  0  0
   -1.2660    1.0696    1.0417 H   0  0  0  0  0  0  0  0  0  0  0  0
  1  2  1  0
  2  3  2  0
  3  4  1  0
  4  5  2  0
  5  6  1  0
  6  7  2  0
  7  8  1  0
  8  9  1  0
  9 10  1  0
 10 11  1  0
 11 12  1  0
  7  2  1  0
 12 10  1  0
  3 13  1  0
  4 14  1  0
  5 15  1  0
  6 16  1  0
  8 17  1  0
  8 18  1  0
  9 19  1  0
  9 20  1  0
 10 21  1  0
 11 22  1  0
 11 23  1  0
 12 24  1  0
 12 25  1  0
M  RAD  1   1   3
M  END
$$$$
