
     RDKit          3D

 25 26  0  0  0  0  0  0  0  0999 V2000
   -1.3349    0.0980   -1.9927 N   0  0  0  0  0  1  0  0  0  0  0  0
   -1.6433   -0.4593   -0.7168 C   0  0  0  0  0  0  0  0  0  0  0  0
   -2.4153   -1.6256   -0.6530 C   0  0  0  0  0  0  0  0  0  0  0  0
   -2.7258   -2.1986    0.5824 C   0  0  0  0  0  0  0  0  0  0  0  0
   -2.2648   -1.6102    1.7613 C   0  0  0  0  0  0  0  0  0  0  0  0
   -1.4934   -0.4463    1.7083 C   0  0  0  0  0  0  0  0  0  0  0  0
   -1.1788    0.1454    0.4723 C   0  0  0  0  0  0  0  0  0  0  0  0
   -0.3201    1.3898    0.4472 C   0  0  0  0  0  0  0  0  0  0  0  0
    1.1684    1.0652    0.6276 C   0  0  0  0  0  0  0  0  0  0  0  0
    1.7182    0.2479   -0.5520 C   0  0  0  0  0  0  0  0  0  0  0  0
    3.2028    0.4304   -0.8285 C   0  0  0  0  0  0  0  0  0  0  0  0
    2.1733    1.0574   -1.7564 C   0  0  0  0  0  0  0  0  0  0  0  0
   -2.7738   -2.0908   -1.5628 H   0  0  0  0  0  0  0  0  0  0  0  0
   -3.3223   -3.1007    0.6256 H   0  0  0  0  0  0  0  0  0  0  0  0
   -2.5033   -2.0575    2.7176 H   0  0  0  0  0  0  0  0  0  0  0  0
   -1.1386   -0.0054    2.6319 H   0  0  0  0  0  0  0  0  0  0  0  0
   -0.4675    1.9638   -0.4927 H   0  0  0  0  0  0  0  0  0  0  0  0
   -0.6379    2.0630    1.2731 H   0  0  0  0  0  0  0  0  0  0  0  0
    1.7220    2.0230    0.7473 H   0  0  0  0  0  0  0  0  0  0  0  0
    1.3147    0.4834    1.5630 H   0  0  0  0  0  0  0  0  0  0  0  0
    1.3262   -0.7694   -0.7657 H   0  0  0  0  0  0  0  0  0  0  0  0
    3.7059   -0.4621   -1.2568 H   0  0  0  0  0  0  0  0  0  0  0  0
    3.7391    1.1647   -0.1899 H   0  0  0  0  0  0  0  0  0  0  0  0
    2.0601    0.5325   -2.7284 H   0  0  0  0  0  0  0  0  0  0  0  0
    2.0890    2.1613   -1.6621 H   0  0  0  0  0  0  0  0  0  0  0  0
  1  2  1  0
  2  3  2  0
  3  4  1  0
  4  5  2  0
  5  6  1  0
  6  7  2  0
  7  8  1  0
  8  9  1  0
  9 10  1  0
 10 11  1  0
 11 12  1  0
  7  2  1  0
 12 10  1  0
  3 13  1  0
  4 14  1  0
  5 15  1  0
  6 16  1  0
  8 17  1  0
  8 18  1  0
  9 19  1  0
  9 20  1  0
 10 21  1  0
 11 22  1  0
 11 23  1  0
 12 24  1  0
 12 25  1  0
M  RAD  1   1   3
M  END
$$$$
