
     RDKit          3D

 25 26  0  0  0  0  0  0  0  0999 V2000
    1.1125   -0.6939   -2.6624 N   0  0  0  0  0  1  0  0  0  0  0  0
    1.5448   -0.1944   -1.3987 C   0  0  0  0  0  0  0  0  0  0  0  0
    2.5014    0.8272   -1.3597 C   0  0  0  0  0  0  0  0  0  0  0  0
    2.9353    1.3393   -0.1347 C   0  0  0  0  0  0  0  0  0  0  0  0
    2.4146    0.8339    1.0580 C   0  0  0  0  0  0  0  0  0  0  0  0
    1.4604   -0.1863    1.0293 C   0  0  0  0  0  0  0  0  0  0  0  0
    1.0192   -0.7151   -0.1967 C   0  0  0  0  0  0  0  0  0  0  0  0
   -0.0442   -1.7890   -0.2065 C   0  0  0  0  0  0  0  0  0  0  0  0
   -1.4398   -1.2074   -0.4637 C   0  0  0  0  0  0  0  0  0  0  0  0
   -1.9040   -0.3218    0.7027 C   0  0  0  0  0  0  0  0  0  0  0  0
   -3.0707    0.5971    0.3741 C   0  0  0  0  0  0  0  0  0  0  0  0
   -1.6732    1.1734    0.5374 C   0  0  0  0  0  0  0  0  0  0  0  0
    2.9075    1.2274   -2.2803 H   0  0  0  0  0  0  0  0  0  0  0  0
    3.6735    2.1304   -0.1101 H   0  0  0  0  0  0  0  0  0  0  0  0
    2.7480    1.2356    2.0061 H   0  0  0  0  0  0  0  0  0  0  0  0
    1.0589   -0.5587    1.9637 H   0  0  0  0  0  0  0  0  0  0  0  0
   -0.0450   -2.3458    0.7566 H   0  0  0  0  0  0  0  0  0  0  0  0
    0.1885   -2.5345   -0.9972 H   0  0  0  0  0  0  0  0  0  0  0  0
   -2.1577   -2.0498   -0.5594 H   0  0  0  0  0  0  0  0  0  0  0  0
   -1.4463   -0.6586   -1.4317 H   0  0  0  0  0  0  0  0  0  0  0  0
   -1.8965   -0.7106    1.7436 H   0  0  0  0  0  0  0  0  0  0  0  0
   -3.4296    0.5810   -0.6775 H   0  0  0  0  0  0  0  0  0  0  0  0
   -3.7458    0.8111    1.2294 H   0  0  0  0  0  0  0  0  0  0  0  0
   -1.5147    1.7177    1.4921 H   0  0  0  0  0  0  0  0  0  0  0  0
   -1.1970    1.4921   -0.4145 H   0  0  0  0  0  0  0  0  0  0  0  0
  1  2  1  0
  2  3  2  0
  3  4  1  0
  4  5  2  0
  5  6  1  0
  6  7  2  0
  7  8  1  0
  8  9  1  0
  9 10  1  0
 10 11  1  0
 11 12  1  0
  7  2  1  0
 12 10  1  0
  3 13  1  0
  4 14  1  0
  5 15  1  0
  6 16  1  0
  8 17  1  0
  8 18  1  0
  9 19  1  0
  9 20  1  0
 10 21  1  0
 11 22  1  0
 11 23  1  0
 12 24  1  0
 12 25  1  0
M  RAD  1   1   3
M  END
$$$$
