
     RDKit          3D

 25 26  0  0  0  0  0  0  0  0999 V2000
   -0.6611   -0.1489   -2.3466 N   0  0  0  0  0  1  0  0  0  0  0  0
   -1.2959   -0.3682   -1.0887 C   0  0  0  0  0  0  0  0  0  0  0  0
   -2.0937   -1.5062   -0.9193 C   0  0  0  0  0  0  0  0  0  0  0  0
   -2.7191   -1.7525    0.3050 C   0  0  0  0  0  0  0  0  0  0  0  0
   -2.5494   -0.8636    1.3678 C   0  0  0  0  0  0  0  0  0  0  0  0
   -1.7551    0.2748    1.2089 C   0  0  0  0  0  0  0  0  0  0  0  0
   -1.1246    0.5390   -0.0197 C   0  0  0  0  0  0  0  0  0  0  0  0
   -0.2394    1.7580   -0.1470 C   0  0  0  0  0  0  0  0  0  0  0  0
    1.1425    1.5254    0.4761 C   0  0  0  0  0  0  0  0  0  0  0  0
    1.9532    0.4910   -0.3189 C   0  0  0  0  0  0  0  0  0  0  0  0
    3.1355   -0.1004    0.4337 C   0  0  0  0  0  0  0  0  0  0  0  0
    1.8917   -0.9410    0.1928 C   0  0  0  0  0  0  0  0  0  0  0  0
   -2.2272   -2.2033   -1.7371 H   0  0  0  0  0  0  0  0  0  0  0  0
   -3.3336   -2.6346    0.4307 H   0  0  0  0  0  0  0  0  0  0  0  0
   -3.0313   -1.0583    2.3172 H   0  0  0  0  0  0  0  0  0  0  0  0
   -1.6265    0.9500    2.0460 H   0  0  0  0  0  0  0  0  0  0  0  0
   -0.7239    2.6119    0.3751 H   0  0  0  0  0  0  0  0  0  0  0  0
   -0.1273    2.0678   -1.2083 H   0  0  0  0  0  0  0  0  0  0  0  0
    1.7017    2.4852    0.4564 H   0  0  0  0  0  0  0  0  0  0  0  0
    1.0275    1.2340    1.5442 H   0  0  0  0  0  0  0  0  0  0  0  0
    2.1160    0.6203   -1.4103 H   0  0  0  0  0  0  0  0  0  0  0  0
    3.9972   -0.3828   -0.2073 H   0  0  0  0  0  0  0  0  0  0  0  0
    3.2604    0.2241    1.4892 H   0  0  0  0  0  0  0  0  0  0  0  0
    1.2725   -1.1096    1.0999 H   0  0  0  0  0  0  0  0  0  0  0  0
    2.0099   -1.7120   -0.5974 H   0  0  0  0  0  0  0  0  0  0  0  0
  1  2  1  0
  2  3  2  0
  3  4  1  0
  4  5  2  0
  5  6  1  0
  6  7  2  0
  7  8  1  0
  8  9  1  0
  9 10  1  0
 10 11  1  0
 11 12  1  0
  7  2  1  0
 12 10  1  0
  3 13  1  0
  4 14  1  0
  5 15  1  0
  6 16  1  0
  8 17  1  0
  8 18  1  0
  9 19  1  0
  9 20  1  0
 10 21  1  0
 11 22  1  0
 11 23  1  0
 12 24  1  0
 12 25  1  0
M  RAD  1   1   3
M  END
$$$$
