
     RDKit          3D

 25 26  0  0  0  0  0  0  0  0999 V2000
   -1.2710   -2.6773    0.0372 N   0  0  0  0  0  1  0  0  0  0  0  0
   -1.6173   -1.2997    0.1626 C   0  0  0  0  0  0  0  0  0  0  0  0
   -2.8280   -0.8485   -0.3767 C   0  0  0  0  0  0  0  0  0  0  0  0
   -3.1862    0.4977   -0.2743 C   0  0  0  0  0  0  0  0  0  0  0  0
   -2.3359    1.4006    0.3667 C   0  0  0  0  0  0  0  0  0  0  0  0
   -1.1261    0.9595    0.9090 C   0  0  0  0  0  0  0  0  0  0  0  0
   -0.7558   -0.3940    0.8182 C   0  0  0  0  0  0  0  0  0  0  0  0
    0.5761   -0.8420    1.3745 C   0  0  0  0  0  0  0  0  0  0  0  0
    1.6479   -0.9365    0.2816 C   0  0  0  0  0  0  0  0  0  0  0  0
    1.9976    0.4482   -0.2848 C   0  0  0  0  0  0  0  0  0  0  0  0
    2.7364    0.4199   -1.6141 C   0  0  0  0  0  0  0  0  0  0  0  0
    1.2776    0.8459   -1.5653 C   0  0  0  0  0  0  0  0  0  0  0  0
   -3.4915   -1.5415   -0.8788 H   0  0  0  0  0  0  0  0  0  0  0  0
   -4.1224    0.8418   -0.6947 H   0  0  0  0  0  0  0  0  0  0  0  0
   -2.6127    2.4443    0.4404 H   0  0  0  0  0  0  0  0  0  0  0  0
   -0.4734    1.6756    1.3929 H   0  0  0  0  0  0  0  0  0  0  0  0
    0.4615   -1.8371    1.8559 H   0  0  0  0  0  0  0  0  0  0  0  0
    0.9191   -0.1470    2.1726 H   0  0  0  0  0  0  0  0  0  0  0  0
    1.3137   -1.6396   -0.5135 H   0  0  0  0  0  0  0  0  0  0  0  0
    2.5694   -1.3640    0.7313 H   0  0  0  0  0  0  0  0  0  0  0  0
    2.2921    1.2771    0.3940 H   0  0  0  0  0  0  0  0  0  0  0  0
    2.8966   -0.5819   -2.0676 H   0  0  0  0  0  0  0  0  0  0  0  0
    3.4436    1.2621   -1.7679 H   0  0  0  0  0  0  0  0  0  0  0  0
    1.1193    1.9391   -1.6777 H   0  0  0  0  0  0  0  0  0  0  0  0
    0.5696    0.0971   -1.9807 H   0  0  0  0  0  0  0  0  0  0  0  0
  1  2  1  0
  2  3  2  0
  3  4  1  0
  4  5  2  0
  5  6  1  0
  6  7  2  0
  7  8  1  0
  8  9  1  0
  9 10  1  0
 10 11  1  0
 11 12  1  0
  7  2  1  0
 12 10  1  0
  3 13  1  0
  4 14  1  0
  5 15  1  0
  6 16  1  0
  8 17  1  0
  8 18  1  0
  9 19  1  0
  9 20  1  0
 10 21  1  0
 11 22  1  0
 11 23  1  0
 12 24  1  0
 12 25  1  0
M  RAD  1   1   3
M  END
$$$$
