
     RDKit          3D

 25 26  0  0  0  0  0  0  0  0999 V2000
   -0.6967   -2.2706    0.5687 N   0  0  0  0  0  1  0  0  0  0  0  0
   -1.4807   -1.0840    0.4641 C   0  0  0  0  0  0  0  0  0  0  0  0
   -2.6341   -0.9598    1.2482 C   0  0  0  0  0  0  0  0  0  0  0  0
   -3.4167    0.1946    1.1727 C   0  0  0  0  0  0  0  0  0  0  0  0
   -3.0499    1.2327    0.3146 C   0  0  0  0  0  0  0  0  0  0  0  0
   -1.9005    1.1187   -0.4718 C   0  0  0  0  0  0  0  0  0  0  0  0
   -1.1070   -0.0404   -0.4114 C   0  0  0  0  0  0  0  0  0  0  0  0
    0.1449   -0.1223   -1.2555 C   0  0  0  0  0  0  0  0  0  0  0  0
    1.3095    0.6602   -0.6349 C   0  0  0  0  0  0  0  0  0  0  0  0
    1.7590    0.0453    0.6998 C   0  0  0  0  0  0  0  0  0  0  0  0
    3.2202    0.2725    1.0564 C   0  0  0  0  0  0  0  0  0  0  0  0
    2.7545   -1.0996    0.5933 C   0  0  0  0  0  0  0  0  0  0  0  0
   -2.9238   -1.7586    1.9195 H   0  0  0  0  0  0  0  0  0  0  0  0
   -4.3068    0.2854    1.7818 H   0  0  0  0  0  0  0  0  0  0  0  0
   -3.6556    2.1281    0.2600 H   0  0  0  0  0  0  0  0  0  0  0  0
   -1.6266    1.9355   -1.1282 H   0  0  0  0  0  0  0  0  0  0  0  0
    0.4500   -1.1772   -1.4249 H   0  0  0  0  0  0  0  0  0  0  0  0
   -0.0703    0.3019   -2.2606 H   0  0  0  0  0  0  0  0  0  0  0  0
    2.1447    0.6835   -1.3698 H   0  0  0  0  0  0  0  0  0  0  0  0
    1.0011    1.7127   -0.4563 H   0  0  0  0  0  0  0  0  0  0  0  0
    1.0671    0.0131    1.5684 H   0  0  0  0  0  0  0  0  0  0  0  0
    3.4260    0.3304    2.1461 H   0  0  0  0  0  0  0  0  0  0  0  0
    3.8345    0.8158    0.3068 H   0  0  0  0  0  0  0  0  0  0  0  0
    2.6758   -1.8503    1.4077 H   0  0  0  0  0  0  0  0  0  0  0  0
    3.0813   -1.3676   -0.4343 H   0  0  0  0  0  0  0  0  0  0  0  0
  1  2  1  0
  2  3  2  0
  3  4  1  0
  4  5  2  0
  5  6  1  0
  6  7  2  0
  7  8  1  0
  8  9  1  0
  9 10  1  0
 10 11  1  0
 11 12  1  0
  7  2  1  0
 12 10  1  0
  3 13  1  0
  4 14  1  0
  5 15  1  0
  6 16  1  0
  8 17  1  0
  8 18  1  0
  9 19  1  0
  9 20  1  0
 10 21  1  0
 11 22  1  0
 11 23  1  0
 12 24  1  0
 12 25  1  0
M  RAD  1   1   3
M  END
$$$$
