
     RDKit          3D

 25 26  0  0  0  0  0  0  0  0999 V2000
    0.6773    1.9724    1.3029 N   0  0  0  0  0  1  0  0  0  0  0  0
    1.4552    0.8587    0.8694 C   0  0  0  0  0  0  0  0  0  0  0  0
    2.5101    0.4116    1.6742 C   0  0  0  0  0  0  0  0  0  0  0  0
    3.2837   -0.6821    1.2790 C   0  0  0  0  0  0  0  0  0  0  0  0
    3.0061   -1.3368    0.0778 C   0  0  0  0  0  0  0  0  0  0  0  0
    1.9553   -0.8986   -0.7324 C   0  0  0  0  0  0  0  0  0  0  0  0
    1.1726    0.2052   -0.3506 C   0  0  0  0  0  0  0  0  0  0  0  0
    0.0263    0.6386   -1.2364 C   0  0  0  0  0  0  0  0  0  0  0  0
   -1.2097   -0.2520   -1.0546 C   0  0  0  0  0  0  0  0  0  0  0  0
   -1.8014   -0.1204    0.3576 C   0  0  0  0  0  0  0  0  0  0  0  0
   -3.2960   -0.3843    0.4592 C   0  0  0  0  0  0  0  0  0  0  0  0
   -2.7658    1.0379    0.5604 C   0  0  0  0  0  0  0  0  0  0  0  0
    2.7299    0.9112    2.6095 H   0  0  0  0  0  0  0  0  0  0  0  0
    4.0974   -1.0238    1.9056 H   0  0  0  0  0  0  0  0  0  0  0  0
    3.6042   -2.1864   -0.2253 H   0  0  0  0  0  0  0  0  0  0  0  0
    1.7493   -1.4211   -1.6586 H   0  0  0  0  0  0  0  0  0  0  0  0
    0.3504    0.5810   -2.2985 H   0  0  0  0  0  0  0  0  0  0  0  0
   -0.2464    1.7002   -1.0543 H   0  0  0  0  0  0  0  0  0  0  0  0
   -0.9350   -1.3146   -1.2281 H   0  0  0  0  0  0  0  0  0  0  0  0
   -1.9562    0.0249   -1.8320 H   0  0  0  0  0  0  0  0  0  0  0  0
   -1.2124   -0.4285    1.2477 H   0  0  0  0  0  0  0  0  0  0  0  0
   -3.6249   -0.8090    1.4312 H   0  0  0  0  0  0  0  0  0  0  0  0
   -3.8270   -0.5998   -0.4927 H   0  0  0  0  0  0  0  0  0  0  0  0
   -2.7721    1.4517    1.5908 H   0  0  0  0  0  0  0  0  0  0  0  0
   -2.9709    1.6641   -0.3343 H   0  0  0  0  0  0  0  0  0  0  0  0
  1  2  1  0
  2  3  2  0
  3  4  1  0
  4  5  2  0
  5  6  1  0
  6  7  2  0
  7  8  1  0
  8  9  1  0
  9 10  1  0
 10 11  1  0
 11 12  1  0
  7  2  1  0
 12 10  1  0
  3 13  1  0
  4 14  1  0
  5 15  1  0
  6 16  1  0
  8 17  1  0
  8 18  1  0
  9 19  1  0
  9 20  1  0
 10 21  1  0
 11 22  1  0
 11 23  1  0
 12 24  1  0
 12 25  1  0
M  RAD  1   1   3
M  END
$$$$
