
     RDKit          3D

 25 26  0  0  0  0  0  0  0  0999 V2000
    1.8151   -1.9800    1.3291 N   0  0  0  0  0  1  0  0  0  0  0  0
    1.8713   -0.7147    0.6740 C   0  0  0  0  0  0  0  0  0  0  0  0
    2.7431    0.2672    1.1597 C   0  0  0  0  0  0  0  0  0  0  0  0
    2.8106    1.5176    0.5408 C   0  0  0  0  0  0  0  0  0  0  0  0
    2.0063    1.7938   -0.5664 C   0  0  0  0  0  0  0  0  0  0  0  0
    1.1340    0.8199   -1.0592 C   0  0  0  0  0  0  0  0  0  0  0  0
    1.0603   -0.4451   -0.4493 C   0  0  0  0  0  0  0  0  0  0  0  0
    0.0798   -1.4694   -0.9722 C   0  0  0  0  0  0  0  0  0  0  0  0
   -1.2153   -1.4905   -0.1508 C   0  0  0  0  0  0  0  0  0  0  0  0
   -2.0095   -0.1862   -0.3189 C   0  0  0  0  0  0  0  0  0  0  0  0
   -3.0776    0.0450    0.7391 C   0  0  0  0  0  0  0  0  0  0  0  0
   -1.7984    0.8665    0.7597 C   0  0  0  0  0  0  0  0  0  0  0  0
    3.3676    0.0624    2.0204 H   0  0  0  0  0  0  0  0  0  0  0  0
    3.4848    2.2739    0.9215 H   0  0  0  0  0  0  0  0  0  0  0  0
    2.0561    2.7650   -1.0415 H   0  0  0  0  0  0  0  0  0  0  0  0
    0.5092    1.0550   -1.9120 H   0  0  0  0  0  0  0  0  0  0  0  0
    0.5447   -2.4783   -0.9407 H   0  0  0  0  0  0  0  0  0  0  0  0
   -0.1604   -1.2699   -2.0400 H   0  0  0  0  0  0  0  0  0  0  0  0
   -0.9807   -1.7009    0.9164 H   0  0  0  0  0  0  0  0  0  0  0  0
   -1.8489   -2.3258   -0.5181 H   0  0  0  0  0  0  0  0  0  0  0  0
   -2.2686    0.1897   -1.3319 H   0  0  0  0  0  0  0  0  0  0  0  0
   -3.1387   -0.7112    1.5511 H   0  0  0  0  0  0  0  0  0  0  0  0
   -3.9659    0.6088    0.3837 H   0  0  0  0  0  0  0  0  0  0  0  0
   -1.9236    1.9116    0.4062 H   0  0  0  0  0  0  0  0  0  0  0  0
   -1.0952    0.5956    1.5762 H   0  0  0  0  0  0  0  0  0  0  0  0
  1  2  1  0
  2  3  2  0
  3  4  1  0
  4  5  2  0
  5  6  1  0
  6  7  2  0
  7  8  1  0
  8  9  1  0
  9 10  1  0
 10 11  1  0
 11 12  1  0
  7  2  1  0
 12 10  1  0
  3 13  1  0
  4 14  1  0
  5 15  1  0
  6 16  1  0
  8 17  1  0
  8 18  1  0
  9 19  1  0
  9 20  1  0
 10 21  1  0
 11 22  1  0
 11 23  1  0
 12 24  1  0
 12 25  1  0
M  RAD  1   1   3
M  END
$$$$
