
     RDKit          3D

 22 22  0  0  0  0  0  0  0  0999 V2000
    3.9789   -0.5566    0.4672 C   0  0  0  0  0  0  0  0  0  0  0  0
    3.0178    0.2918    0.0947 C   0  0  0  0  0  0  0  0  0  0  0  0
    1.5678   -0.0995    0.1798 C   0  0  0  0  0  0  0  0  0  0  0  0
    0.6580    1.0349   -0.3022 C   0  0  0  0  0  0  0  0  0  0  0  0
   -0.7926    0.6269   -0.2144 C   0  0  0  0  0  0  0  0  0  0  0  0
   -1.4099    0.0228   -1.3238 C   0  0  0  0  0  0  0  0  0  0  0  0
   -2.7433   -0.3897   -1.2546 C   0  0  0  0  0  0  0  0  0  0  0  0
   -3.4706   -0.2130   -0.0759 C   0  0  0  0  0  0  0  0  0  0  0  0
   -2.8649    0.3723    1.0385 C   0  0  0  0  0  0  0  0  0  0  0  0
   -1.5294    0.7885    0.9789 C   0  0  0  0  0  0  0  0  0  0  0  0
   -0.9302    1.3692    2.1353 N   0  0  0  0  0  1  0  0  0  0  0  0
    5.0208   -0.2607    0.4004 H   0  0  0  0  0  0  0  0  0  0  0  0
    3.7353   -1.5472    0.8396 H   0  0  0  0  0  0  0  0  0  0  0  0
    3.2993    1.2751   -0.2730 H   0  0  0  0  0  0  0  0  0  0  0  0
    1.3982   -1.0015   -0.4486 H   0  0  0  0  0  0  0  0  0  0  0  0
    1.3219   -0.3502    1.2351 H   0  0  0  0  0  0  0  0  0  0  0  0
    0.8357    1.9477    0.3074 H   0  0  0  0  0  0  0  0  0  0  0  0
    0.9135    1.2939   -1.3537 H   0  0  0  0  0  0  0  0  0  0  0  0
   -0.8574   -0.1300   -2.2428 H   0  0  0  0  0  0  0  0  0  0  0  0
   -3.2122   -0.8498   -2.1148 H   0  0  0  0  0  0  0  0  0  0  0  0
   -4.5028   -0.5344   -0.0241 H   0  0  0  0  0  0  0  0  0  0  0  0
   -3.4338    0.4988    1.9512 H   0  0  0  0  0  0  0  0  0  0  0  0
  1  2  2  0
  2  3  1  0
  3  4  1  0
  4  5  1  0
  5  6  2  0
  6  7  1  0
  7  8  2  0
  8  9  1  0
  9 10  2  0
 10 11  1  0
 10  5  1  0
  1 12  1  0
  1 13  1  0
  2 14  1  0
  3 15  1  0
  3 16  1  0
  4 17  1  0
  4 18  1  0
  6 19  1  0
  7 20  1  0
  8 21  1  0
  9 22  1  0
M  RAD  1  11   3
M  END
$$$$
