
     RDKit          3D

 22 22  0  0  0  0  0  0  0  0999 V2000
   -1.4175    0.9420   -1.8488 C   0  0  0  0  0  0  0  0  0  0  0  0
   -1.8984   -0.2871   -1.6394 C   0  0  0  0  0  0  0  0  0  0  0  0
   -2.0168   -0.8687   -0.2560 C   0  0  0  0  0  0  0  0  0  0  0  0
   -0.7200   -1.5539    0.1978 C   0  0  0  0  0  0  0  0  0  0  0  0
    0.3930   -0.5618    0.4491 C   0  0  0  0  0  0  0  0  0  0  0  0
    0.3849    0.1916    1.6362 C   0  0  0  0  0  0  0  0  0  0  0  0
    1.3849    1.1355    1.8837 C   0  0  0  0  0  0  0  0  0  0  0  0
    2.4006    1.3406    0.9484 C   0  0  0  0  0  0  0  0  0  0  0  0
    2.4185    0.6032   -0.2375 C   0  0  0  0  0  0  0  0  0  0  0  0
    1.4212   -0.3453   -0.4949 C   0  0  0  0  0  0  0  0  0  0  0  0
    1.4585   -1.0744   -1.7198 N   0  0  0  0  0  1  0  0  0  0  0  0
   -1.3508    1.3340   -2.8583 H   0  0  0  0  0  0  0  0  0  0  0  0
   -1.0884    1.5627   -1.0209 H   0  0  0  0  0  0  0  0  0  0  0  0
   -2.2299   -0.8775   -2.4884 H   0  0  0  0  0  0  0  0  0  0  0  0
   -2.8238   -1.6323   -0.2726 H   0  0  0  0  0  0  0  0  0  0  0  0
   -2.3233   -0.0861    0.4726 H   0  0  0  0  0  0  0  0  0  0  0  0
   -0.4197   -2.3209   -0.5481 H   0  0  0  0  0  0  0  0  0  0  0  0
   -0.9253   -2.1059    1.1410 H   0  0  0  0  0  0  0  0  0  0  0  0
   -0.3998    0.0490    2.3692 H   0  0  0  0  0  0  0  0  0  0  0  0
    1.3706    1.7103    2.8007 H   0  0  0  0  0  0  0  0  0  0  0  0
    3.1736    2.0733    1.1415 H   0  0  0  0  0  0  0  0  0  0  0  0
    3.2078    0.7717   -0.9595 H   0  0  0  0  0  0  0  0  0  0  0  0
  1  2  2  0
  2  3  1  0
  3  4  1  0
  4  5  1  0
  5  6  2  0
  6  7  1  0
  7  8  2  0
  8  9  1  0
  9 10  2  0
 10 11  1  0
 10  5  1  0
  1 12  1  0
  1 13  1  0
  2 14  1  0
  3 15  1  0
  3 16  1  0
  4 17  1  0
  4 18  1  0
  6 19  1  0
  7 20  1  0
  8 21  1  0
  9 22  1  0
M  RAD  1  11   3
M  END
$$$$
