
     RDKit          3D

 22 22  0  0  0  0  0  0  0  0999 V2000
    1.7318    1.7297    0.3285 C   0  0  0  0  0  0  0  0  0  0  0  0
    2.0149    0.7836    1.2286 C   0  0  0  0  0  0  0  0  0  0  0  0
    1.8904   -0.6818    0.9067 C   0  0  0  0  0  0  0  0  0  0  0  0
    0.4690   -1.2095    1.1473 C   0  0  0  0  0  0  0  0  0  0  0  0
   -0.5220   -0.6592    0.1467 C   0  0  0  0  0  0  0  0  0  0  0  0
   -0.5521   -1.1933   -1.1536 C   0  0  0  0  0  0  0  0  0  0  0  0
   -1.4380   -0.6866   -2.1079 C   0  0  0  0  0  0  0  0  0  0  0  0
   -2.2999    0.3603   -1.7766 C   0  0  0  0  0  0  0  0  0  0  0  0
   -2.2774    0.9043   -0.4905 C   0  0  0  0  0  0  0  0  0  0  0  0
   -1.3936    0.4034    0.4731 C   0  0  0  0  0  0  0  0  0  0  0  0
   -1.3846    0.9869    1.7742 N   0  0  0  0  0  1  0  0  0  0  0  0
    1.8376    2.7772    0.5906 H   0  0  0  0  0  0  0  0  0  0  0  0
    1.3943    1.4691   -0.6701 H   0  0  0  0  0  0  0  0  0  0  0  0
    2.3613    1.0779    2.2149 H   0  0  0  0  0  0  0  0  0  0  0  0
    2.5836   -1.2395    1.5724 H   0  0  0  0  0  0  0  0  0  0  0  0
    2.2118   -0.8812   -0.1394 H   0  0  0  0  0  0  0  0  0  0  0  0
    0.1578   -0.9884    2.1909 H   0  0  0  0  0  0  0  0  0  0  0  0
    0.4858   -2.3179    1.0596 H   0  0  0  0  0  0  0  0  0  0  0  0
    0.1145   -2.0015   -1.4284 H   0  0  0  0  0  0  0  0  0  0  0  0
   -1.4543   -1.1046   -3.1061 H   0  0  0  0  0  0  0  0  0  0  0  0
   -2.9844    0.7522   -2.5178 H   0  0  0  0  0  0  0  0  0  0  0  0
   -2.9465    1.7190   -0.2433 H   0  0  0  0  0  0  0  0  0  0  0  0
  1  2  2  0
  2  3  1  0
  3  4  1  0
  4  5  1  0
  5  6  2  0
  6  7  1  0
  7  8  2  0
  8  9  1  0
  9 10  2  0
 10 11  1  0
 10  5  1  0
  1 12  1  0
  1 13  1  0
  2 14  1  0
  3 15  1  0
  3 16  1  0
  4 17  1  0
  4 18  1  0
  6 19  1  0
  7 20  1  0
  8 21  1  0
  9 22  1  0
M  RAD  1  11   3
M  END
$$$$
