
     RDKit          3D

 22 22  0  0  0  0  0  0  0  0999 V2000
   -4.0000   -0.0942    0.7478 C   0  0  0  0  0  0  0  0  0  0  0  0
   -3.0043   -0.3050   -0.1162 C   0  0  0  0  0  0  0  0  0  0  0  0
   -1.5751   -0.0473    0.2759 C   0  0  0  0  0  0  0  0  0  0  0  0
   -0.6181   -0.3601   -0.8788 C   0  0  0  0  0  0  0  0  0  0  0  0
    0.8108   -0.0937   -0.4722 C   0  0  0  0  0  0  0  0  0  0  0  0
    1.3721    1.1739   -0.7066 C   0  0  0  0  0  0  0  0  0  0  0  0
    2.6835    1.4516   -0.3115 C   0  0  0  0  0  0  0  0  0  0  0  0
    3.4440    0.4718    0.3296 C   0  0  0  0  0  0  0  0  0  0  0  0
    2.8935   -0.7870    0.5818 C   0  0  0  0  0  0  0  0  0  0  0  0
    1.5803   -1.0746    0.1900 C   0  0  0  0  0  0  0  0  0  0  0  0
    1.0370   -2.3623    0.4729 N   0  0  0  0  0  1  0  0  0  0  0  0
   -3.8002    0.2677    1.7520 H   0  0  0  0  0  0  0  0  0  0  0  0
   -5.0264   -0.2846    0.4511 H   0  0  0  0  0  0  0  0  0  0  0  0
   -3.2422   -0.6678   -1.1128 H   0  0  0  0  0  0  0  0  0  0  0  0
   -1.3201   -0.6826    1.1523 H   0  0  0  0  0  0  0  0  0  0  0  0
   -1.4660    1.0207    0.5672 H   0  0  0  0  0  0  0  0  0  0  0  0
   -0.8823    0.2665   -1.7596 H   0  0  0  0  0  0  0  0  0  0  0  0
   -0.7352   -1.4209   -1.1907 H   0  0  0  0  0  0  0  0  0  0  0  0
    0.7929    1.9483   -1.1945 H   0  0  0  0  0  0  0  0  0  0  0  0
    3.1093    2.4287   -0.4998 H   0  0  0  0  0  0  0  0  0  0  0  0
    4.4590    0.6895    0.6358 H   0  0  0  0  0  0  0  0  0  0  0  0
    3.4875   -1.5388    1.0863 H   0  0  0  0  0  0  0  0  0  0  0  0
  1  2  2  0
  2  3  1  0
  3  4  1  0
  4  5  1  0
  5  6  2  0
  6  7  1  0
  7  8  2  0
  8  9  1  0
  9 10  2  0
 10 11  1  0
 10  5  1  0
  1 12  1  0
  1 13  1  0
  2 14  1  0
  3 15  1  0
  3 16  1  0
  4 17  1  0
  4 18  1  0
  6 19  1  0
  7 20  1  0
  8 21  1  0
  9 22  1  0
M  RAD  1  11   3
M  END
$$$$
