
     RDKit          3D

 22 22  0  0  0  0  0  0  0  0999 V2000
    3.7653    0.0736    0.5408 C   0  0  0  0  0  0  0  0  0  0  0  0
    2.9988    0.6416   -0.3950 C   0  0  0  0  0  0  0  0  0  0  0  0
    1.5778    0.2063   -0.6249 C   0  0  0  0  0  0  0  0  0  0  0  0
    0.6681    0.6470    0.5274 C   0  0  0  0  0  0  0  0  0  0  0  0
   -0.7592    0.2328    0.2650 C   0  0  0  0  0  0  0  0  0  0  0  0
   -1.6288    1.1216   -0.3913 C   0  0  0  0  0  0  0  0  0  0  0  0
   -2.9458    0.7468   -0.6703 C   0  0  0  0  0  0  0  0  0  0  0  0
   -3.4051   -0.5207   -0.3070 C   0  0  0  0  0  0  0  0  0  0  0  0
   -2.5471   -1.4188    0.3322 C   0  0  0  0  0  0  0  0  0  0  0  0
   -1.2258   -1.0524    0.6159 C   0  0  0  0  0  0  0  0  0  0  0  0
   -0.3658   -1.9931    1.2555 N   0  0  0  0  0  1  0  0  0  0  0  0
    3.3788   -0.7183    1.1751 H   0  0  0  0  0  0  0  0  0  0  0  0
    4.7918    0.3995    0.6730 H   0  0  0  0  0  0  0  0  0  0  0  0
    3.4222    1.4162   -1.0275 H   0  0  0  0  0  0  0  0  0  0  0  0
    1.2162    0.6654   -1.5708 H   0  0  0  0  0  0  0  0  0  0  0  0
    1.5428   -0.8989   -0.7441 H   0  0  0  0  0  0  0  0  0  0  0  0
    0.7260    1.7522    0.6425 H   0  0  0  0  0  0  0  0  0  0  0  0
    1.0202    0.2058    1.4849 H   0  0  0  0  0  0  0  0  0  0  0  0
   -1.2860    2.1052   -0.6881 H   0  0  0  0  0  0  0  0  0  0  0  0
   -3.6100    1.4387   -1.1719 H   0  0  0  0  0  0  0  0  0  0  0  0
   -4.4252   -0.8093   -0.5253 H   0  0  0  0  0  0  0  0  0  0  0  0
   -2.9091   -2.4025    0.6040 H   0  0  0  0  0  0  0  0  0  0  0  0
  1  2  2  0
  2  3  1  0
  3  4  1  0
  4  5  1  0
  5  6  2  0
  6  7  1  0
  7  8  2  0
  8  9  1  0
  9 10  2  0
 10 11  1  0
 10  5  1  0
  1 12  1  0
  1 13  1  0
  2 14  1  0
  3 15  1  0
  3 16  1  0
  4 17  1  0
  4 18  1  0
  6 19  1  0
  7 20  1  0
  8 21  1  0
  9 22  1  0
M  RAD  1  11   3
M  END
$$$$
