
     RDKit          3D

 22 22  0  0  0  0  0  0  0  0999 V2000
    2.1584    1.0712   -0.3673 C   0  0  0  0  0  0  0  0  0  0  0  0
    2.4778    0.0119    0.3821 C   0  0  0  0  0  0  0  0  0  0  0  0
    1.7727   -1.3095    0.2311 C   0  0  0  0  0  0  0  0  0  0  0  0
    0.4979   -1.3872    1.0831 C   0  0  0  0  0  0  0  0  0  0  0  0
   -0.5910   -0.4739    0.5670 C   0  0  0  0  0  0  0  0  0  0  0  0
   -1.3322   -0.8612   -0.5633 C   0  0  0  0  0  0  0  0  0  0  0  0
   -2.3261   -0.0258   -1.0797 C   0  0  0  0  0  0  0  0  0  0  0  0
   -2.5883    1.2056   -0.4768 C   0  0  0  0  0  0  0  0  0  0  0  0
   -1.8564    1.6056    0.6435 C   0  0  0  0  0  0  0  0  0  0  0  0
   -0.8585    0.7757    1.1687 C   0  0  0  0  0  0  0  0  0  0  0  0
   -0.1192    1.2161    2.3058 N   0  0  0  0  0  1  0  0  0  0  0  0
    1.3692    1.0132   -1.1108 H   0  0  0  0  0  0  0  0  0  0  0  0
    2.6903    2.0079   -0.2376 H   0  0  0  0  0  0  0  0  0  0  0  0
    3.2801    0.1001    1.1086 H   0  0  0  0  0  0  0  0  0  0  0  0
    1.5432   -1.5106   -0.8386 H   0  0  0  0  0  0  0  0  0  0  0  0
    2.4653   -2.1090    0.5715 H   0  0  0  0  0  0  0  0  0  0  0  0
    0.1244   -2.4343    1.0626 H   0  0  0  0  0  0  0  0  0  0  0  0
    0.7420   -1.1686    2.1449 H   0  0  0  0  0  0  0  0  0  0  0  0
   -1.1367   -1.8106   -1.0466 H   0  0  0  0  0  0  0  0  0  0  0  0
   -2.8919   -0.3328   -1.9498 H   0  0  0  0  0  0  0  0  0  0  0  0
   -3.3577    1.8517   -0.8792 H   0  0  0  0  0  0  0  0  0  0  0  0
   -2.0634    2.5643    1.1024 H   0  0  0  0  0  0  0  0  0  0  0  0
  1  2  2  0
  2  3  1  0
  3  4  1  0
  4  5  1  0
  5  6  2  0
  6  7  1  0
  7  8  2  0
  8  9  1  0
  9 10  2  0
 10 11  1  0
 10  5  1  0
  1 12  1  0
  1 13  1  0
  2 14  1  0
  3 15  1  0
  3 16  1  0
  4 17  1  0
  4 18  1  0
  6 19  1  0
  7 20  1  0
  8 21  1  0
  9 22  1  0
M  RAD  1  11   3
M  END
$$$$
