
     RDKit          3D

 22 22  0  0  0  0  0  0  0  0999 V2000
   -1.2071    2.0995    0.5807 C   0  0  0  0  0  0  0  0  0  0  0  0
   -2.0227    1.1283    1.0019 C   0  0  0  0  0  0  0  0  0  0  0  0
   -2.1952   -0.1537    0.2318 C   0  0  0  0  0  0  0  0  0  0  0  0
   -1.1379   -1.2019    0.6066 C   0  0  0  0  0  0  0  0  0  0  0  0
    0.2433   -0.8176    0.1263 C   0  0  0  0  0  0  0  0  0  0  0  0
    0.5688   -0.9860   -1.2311 C   0  0  0  0  0  0  0  0  0  0  0  0
    1.8278   -0.6145   -1.7097 C   0  0  0  0  0  0  0  0  0  0  0  0
    2.7735   -0.0676   -0.8407 C   0  0  0  0  0  0  0  0  0  0  0  0
    2.4622    0.1104    0.5092 C   0  0  0  0  0  0  0  0  0  0  0  0
    1.2036   -0.2590    0.9987 C   0  0  0  0  0  0  0  0  0  0  0  0
    0.9100   -0.0540    2.3790 N   0  0  0  0  0  1  0  0  0  0  0  0
   -1.1098    3.0141    1.1561 H   0  0  0  0  0  0  0  0  0  0  0  0
   -0.6336    1.9909   -0.3349 H   0  0  0  0  0  0  0  0  0  0  0  0
   -2.5910    1.2736    1.9158 H   0  0  0  0  0  0  0  0  0  0  0  0
   -2.1829    0.0428   -0.8630 H   0  0  0  0  0  0  0  0  0  0  0  0
   -3.1961   -0.5693    0.4770 H   0  0  0  0  0  0  0  0  0  0  0  0
   -1.1528   -1.3745    1.7043 H   0  0  0  0  0  0  0  0  0  0  0  0
   -1.4213   -2.1701    0.1391 H   0  0  0  0  0  0  0  0  0  0  0  0
   -0.1560   -1.4031   -1.9196 H   0  0  0  0  0  0  0  0  0  0  0  0
    2.0694   -0.7485   -2.7562 H   0  0  0  0  0  0  0  0  0  0  0  0
    3.7477    0.2208   -1.2138 H   0  0  0  0  0  0  0  0  0  0  0  0
    3.2003    0.5393    1.1755 H   0  0  0  0  0  0  0  0  0  0  0  0
  1  2  2  0
  2  3  1  0
  3  4  1  0
  4  5  1  0
  5  6  2  0
  6  7  1  0
  7  8  2  0
  8  9  1  0
  9 10  2  0
 10 11  1  0
 10  5  1  0
  1 12  1  0
  1 13  1  0
  2 14  1  0
  3 15  1  0
  3 16  1  0
  4 17  1  0
  4 18  1  0
  6 19  1  0
  7 20  1  0
  8 21  1  0
  9 22  1  0
M  RAD  1  11   3
M  END
$$$$
