
     RDKit          3D

 22 22  0  0  0  0  0  0  0  0999 V2000
   -2.0039    0.9134    1.1177 C   0  0  0  0  0  0  0  0  0  0  0  0
   -2.4090   -0.2359    0.5695 C   0  0  0  0  0  0  0  0  0  0  0  0
   -1.9436   -0.6733   -0.7937 C   0  0  0  0  0  0  0  0  0  0  0  0
   -0.6162   -1.4424   -0.7340 C   0  0  0  0  0  0  0  0  0  0  0  0
    0.5452   -0.5499   -0.3590 C   0  0  0  0  0  0  0  0  0  0  0  0
    1.0939    0.3060   -1.3302 C   0  0  0  0  0  0  0  0  0  0  0  0
    2.1496    1.1619   -1.0059 C   0  0  0  0  0  0  0  0  0  0  0  0
    2.6662    1.1759    0.2908 C   0  0  0  0  0  0  0  0  0  0  0  0
    2.1276    0.3350    1.2672 C   0  0  0  0  0  0  0  0  0  0  0  0
    1.0698   -0.5266    0.9524 C   0  0  0  0  0  0  0  0  0  0  0  0
    0.5322   -1.3648    1.9730 N   0  0  0  0  0  1  0  0  0  0  0  0
   -2.3629    1.2024    2.0999 H   0  0  0  0  0  0  0  0  0  0  0  0
   -1.3154    1.5707    0.5951 H   0  0  0  0  0  0  0  0  0  0  0  0
   -3.1073   -0.8648    1.1138 H   0  0  0  0  0  0  0  0  0  0  0  0
   -1.8612    0.2000   -1.4778 H   0  0  0  0  0  0  0  0  0  0  0  0
   -2.7159   -1.3491   -1.2197 H   0  0  0  0  0  0  0  0  0  0  0  0
   -0.7109   -2.3011   -0.0350 H   0  0  0  0  0  0  0  0  0  0  0  0
   -0.4189   -1.8819   -1.7362 H   0  0  0  0  0  0  0  0  0  0  0  0
    0.7002    0.3117   -2.3393 H   0  0  0  0  0  0  0  0  0  0  0  0
    2.5658    1.8167   -1.7605 H   0  0  0  0  0  0  0  0  0  0  0  0
    3.4831    1.8407    0.5402 H   0  0  0  0  0  0  0  0  0  0  0  0
    2.5316    0.3554    2.2717 H   0  0  0  0  0  0  0  0  0  0  0  0
  1  2  2  0
  2  3  1  0
  3  4  1  0
  4  5  1  0
  5  6  2  0
  6  7  1  0
  7  8  2  0
  8  9  1  0
  9 10  2  0
 10 11  1  0
 10  5  1  0
  1 12  1  0
  1 13  1  0
  2 14  1  0
  3 15  1  0
  3 16  1  0
  4 17  1  0
  4 18  1  0
  6 19  1  0
  7 20  1  0
  8 21  1  0
  9 22  1  0
M  RAD  1  11   3
M  END
$$$$
