
     RDKit          3D

 22 22  0  0  0  0  0  0  0  0999 V2000
    3.6993   -0.6117   -0.7881 C   0  0  0  0  0  0  0  0  0  0  0  0
    3.0568    0.0292    0.1928 C   0  0  0  0  0  0  0  0  0  0  0  0
    1.5875   -0.1735    0.4406 C   0  0  0  0  0  0  0  0  0  0  0  0
    0.7433    0.4694   -0.6657 C   0  0  0  0  0  0  0  0  0  0  0  0
   -0.7282    0.2868   -0.3842 C   0  0  0  0  0  0  0  0  0  0  0  0
   -1.4235    1.2747    0.3349 C   0  0  0  0  0  0  0  0  0  0  0  0
   -2.7794    1.1117    0.6318 C   0  0  0  0  0  0  0  0  0  0  0  0
   -3.4519   -0.0417    0.2234 C   0  0  0  0  0  0  0  0  0  0  0  0
   -2.7692   -1.0376   -0.4789 C   0  0  0  0  0  0  0  0  0  0  0  0
   -1.4106   -0.8835   -0.7808 C   0  0  0  0  0  0  0  0  0  0  0  0
   -0.7331   -1.9217   -1.4856 N   0  0  0  0  0  1  0  0  0  0  0  0
    3.1733   -1.2956   -1.4474 H   0  0  0  0  0  0  0  0  0  0  0  0
    4.7633   -0.4556   -0.9327 H   0  0  0  0  0  0  0  0  0  0  0  0
    3.6161    0.6900    0.8485 H   0  0  0  0  0  0  0  0  0  0  0  0
    1.3695   -1.2619    0.5100 H   0  0  0  0  0  0  0  0  0  0  0  0
    1.3259    0.2921    1.4158 H   0  0  0  0  0  0  0  0  0  0  0  0
    0.9839    1.5538   -0.7316 H   0  0  0  0  0  0  0  0  0  0  0  0
    0.9982    0.0235   -1.6514 H   0  0  0  0  0  0  0  0  0  0  0  0
   -0.9148    2.1713    0.6672 H   0  0  0  0  0  0  0  0  0  0  0  0
   -3.3083    1.8792    1.1821 H   0  0  0  0  0  0  0  0  0  0  0  0
   -4.5017   -0.1664    0.4555 H   0  0  0  0  0  0  0  0  0  0  0  0
   -3.2963   -1.9325   -0.7855 H   0  0  0  0  0  0  0  0  0  0  0  0
  1  2  2  0
  2  3  1  0
  3  4  1  0
  4  5  1  0
  5  6  2  0
  6  7  1  0
  7  8  2  0
  8  9  1  0
  9 10  2  0
 10 11  1  0
 10  5  1  0
  1 12  1  0
  1 13  1  0
  2 14  1  0
  3 15  1  0
  3 16  1  0
  4 17  1  0
  4 18  1  0
  6 19  1  0
  7 20  1  0
  8 21  1  0
  9 22  1  0
M  RAD  1  11   3
M  END
$$$$
