
     RDKit          3D

 22 22  0  0  0  0  0  0  0  0999 V2000
    2.1618    0.6129   -0.9223 C   0  0  0  0  0  0  0  0  0  0  0  0
    2.3712   -0.5840   -0.3662 C   0  0  0  0  0  0  0  0  0  0  0  0
    1.7887   -0.9507    0.9726 C   0  0  0  0  0  0  0  0  0  0  0  0
    0.3673   -1.5179    0.8508 C   0  0  0  0  0  0  0  0  0  0  0  0
   -0.6345   -0.4650    0.4337 C   0  0  0  0  0  0  0  0  0  0  0  0
   -1.0939    0.4604    1.3873 C   0  0  0  0  0  0  0  0  0  0  0  0
   -1.9987    1.4616    1.0251 C   0  0  0  0  0  0  0  0  0  0  0  0
   -2.4514    1.5527   -0.2923 C   0  0  0  0  0  0  0  0  0  0  0  0
   -1.9995    0.6435   -1.2514 C   0  0  0  0  0  0  0  0  0  0  0  0
   -1.0931   -0.3636   -0.8985 C   0  0  0  0  0  0  0  0  0  0  0  0
   -0.6399   -1.2699   -1.9019 N   0  0  0  0  0  1  0  0  0  0  0  0
    1.5546    1.3628   -0.4244 H   0  0  0  0  0  0  0  0  0  0  0  0
    2.6010    0.8478   -1.8862 H   0  0  0  0  0  0  0  0  0  0  0  0
    2.9931   -1.3073   -0.8852 H   0  0  0  0  0  0  0  0  0  0  0  0
    2.4353   -1.7325    1.4258 H   0  0  0  0  0  0  0  0  0  0  0  0
    1.8051   -0.0757    1.6593 H   0  0  0  0  0  0  0  0  0  0  0  0
    0.0651   -1.9252    1.8404 H   0  0  0  0  0  0  0  0  0  0  0  0
    0.3659   -2.3803    0.1499 H   0  0  0  0  0  0  0  0  0  0  0  0
   -0.7474    0.4073    2.4121 H   0  0  0  0  0  0  0  0  0  0  0  0
   -2.3472    2.1692    1.7663 H   0  0  0  0  0  0  0  0  0  0  0  0
   -3.1512    2.3299   -0.5710 H   0  0  0  0  0  0  0  0  0  0  0  0
   -2.3526    0.7240   -2.2719 H   0  0  0  0  0  0  0  0  0  0  0  0
  1  2  2  0
  2  3  1  0
  3  4  1  0
  4  5  1  0
  5  6  2  0
  6  7  1  0
  7  8  2  0
  8  9  1  0
  9 10  2  0
 10 11  1  0
 10  5  1  0
  1 12  1  0
  1 13  1  0
  2 14  1  0
  3 15  1  0
  3 16  1  0
  4 17  1  0
  4 18  1  0
  6 19  1  0
  7 20  1  0
  8 21  1  0
  9 22  1  0
M  RAD  1  11   3
M  END
$$$$
