
     RDKit          3D

 22 22  0  0  0  0  0  0  0  0999 V2000
    3.7776    0.2665   -0.4400 C   0  0  0  0  0  0  0  0  0  0  0  0
    2.9532    0.5620    0.5694 C   0  0  0  0  0  0  0  0  0  0  0  0
    1.5480    0.0295    0.6250 C   0  0  0  0  0  0  0  0  0  0  0  0
    0.6576    0.6994   -0.4278 C   0  0  0  0  0  0  0  0  0  0  0  0
   -0.7561    0.1791   -0.3359 C   0  0  0  0  0  0  0  0  0  0  0  0
   -1.6893    0.8492    0.4746 C   0  0  0  0  0  0  0  0  0  0  0  0
   -2.9955    0.3675    0.5969 C   0  0  0  0  0  0  0  0  0  0  0  0
   -3.3804   -0.7918   -0.0793 C   0  0  0  0  0  0  0  0  0  0  0  0
   -2.4589   -1.4754   -0.8760 C   0  0  0  0  0  0  0  0  0  0  0  0
   -1.1479   -1.0006   -1.0046 C   0  0  0  0  0  0  0  0  0  0  0  0
   -0.2223   -1.7253   -1.8119 N   0  0  0  0  0  1  0  0  0  0  0  0
    4.7910    0.6542   -0.4444 H   0  0  0  0  0  0  0  0  0  0  0  0
    3.4515   -0.3635   -1.2620 H   0  0  0  0  0  0  0  0  0  0  0  0
    3.3170    1.1771    1.3872 H   0  0  0  0  0  0  0  0  0  0  0  0
    1.5624   -1.0724    0.4745 H   0  0  0  0  0  0  0  0  0  0  0  0
    1.1327    0.2326    1.6361 H   0  0  0  0  0  0  0  0  0  0  0  0
    0.6660    1.8011   -0.2722 H   0  0  0  0  0  0  0  0  0  0  0  0
    1.0629    0.5160   -1.4463 H   0  0  0  0  0  0  0  0  0  0  0  0
   -1.4047    1.7447    1.0132 H   0  0  0  0  0  0  0  0  0  0  0  0
   -3.7089    0.8918    1.2194 H   0  0  0  0  0  0  0  0  0  0  0  0
   -4.3922   -1.1638    0.0179 H   0  0  0  0  0  0  0  0  0  0  0  0
   -2.7635   -2.3779   -1.3912 H   0  0  0  0  0  0  0  0  0  0  0  0
  1  2  2  0
  2  3  1  0
  3  4  1  0
  4  5  1  0
  5  6  2  0
  6  7  1  0
  7  8  2  0
  8  9  1  0
  9 10  2  0
 10 11  1  0
 10  5  1  0
  1 12  1  0
  1 13  1  0
  2 14  1  0
  3 15  1  0
  3 16  1  0
  4 17  1  0
  4 18  1  0
  6 19  1  0
  7 20  1  0
  8 21  1  0
  9 22  1  0
M  RAD  1  11   3
M  END
$$$$
