
     RDKit          3D

 25 26  0  0  0  0  0  0  0  0999 V2000
    1.8219   -1.3503   -2.2198 N   0  0  0  0  0  1  0  0  0  0  0  0
    1.9017   -0.5423   -1.0476 C   0  0  0  0  0  0  0  0  0  0  0  0
    2.8611    0.4755   -0.9840 C   0  0  0  0  0  0  0  0  0  0  0  0
    2.9531    1.2867    0.1495 C   0  0  0  0  0  0  0  0  0  0  0  0
    2.0860    1.0859    1.2251 C   0  0  0  0  0  0  0  0  0  0  0  0
    1.1264    0.0717    1.1715 C   0  0  0  0  0  0  0  0  0  0  0  0
    1.0272   -0.7564    0.0393 C   0  0  0  0  0  0  0  0  0  0  0  0
   -0.0461   -1.8197   -0.0150 C   0  0  0  0  0  0  0  0  0  0  0  0
   -1.2815   -1.3458   -0.7921 C   0  0  0  0  0  0  0  0  0  0  0  0
   -1.9681   -0.2050   -0.1012 C   0  0  0  0  0  0  0  0  0  0  0  0
   -1.7949    1.1378   -0.3611 C   0  0  0  0  0  0  0  0  0  0  0  0
   -2.5674    1.7957    0.5739 C   0  0  0  0  0  0  0  0  0  0  0  0
   -3.1627    0.9216    1.3550 O   0  0  0  0  0  0  0  0  0  0  0  0
   -2.8193   -0.2896    0.9809 C   0  0  0  0  0  0  0  0  0  0  0  0
    3.5347    0.6406   -1.8156 H   0  0  0  0  0  0  0  0  0  0  0  0
    3.6950    2.0735    0.1927 H   0  0  0  0  0  0  0  0  0  0  0  0
    2.1548    1.7192    2.1001 H   0  0  0  0  0  0  0  0  0  0  0  0
    0.4541   -0.0626    2.0100 H   0  0  0  0  0  0  0  0  0  0  0  0
    0.3590   -2.7326   -0.5024 H   0  0  0  0  0  0  0  0  0  0  0  0
   -0.3466   -2.1223    1.0125 H   0  0  0  0  0  0  0  0  0  0  0  0
   -1.9960   -2.1920   -0.8827 H   0  0  0  0  0  0  0  0  0  0  0  0
   -0.9924   -1.0430   -1.8218 H   0  0  0  0  0  0  0  0  0  0  0  0
   -1.1712    1.5837   -1.1246 H   0  0  0  0  0  0  0  0  0  0  0  0
   -2.6730    2.8683    0.6663 H   0  0  0  0  0  0  0  0  0  0  0  0
   -3.1557   -1.1987    1.4616 H   0  0  0  0  0  0  0  0  0  0  0  0
  1  2  1  0
  2  3  2  0
  3  4  1  0
  4  5  2  0
  5  6  1  0
  6  7  2  0
  7  8  1  0
  8  9  1  0
  9 10  1  0
 10 11  1  0
 11 12  2  0
 12 13  1  0
 13 14  1  0
  7  2  1  0
 14 10  2  0
  3 15  1  0
  4 16  1  0
  5 17  1  0
  6 18  1  0
  8 19  1  0
  8 20  1  0
  9 21  1  0
  9 22  1  0
 11 23  1  0
 12 24  1  0
 14 25  1  0
M  RAD  1   1   3
M  END
$$$$
