
     RDKit          3D

 25 26  0  0  0  0  0  0  0  0999 V2000
   -1.7877    1.7214   -1.5427 N   0  0  0  0  0  1  0  0  0  0  0  0
   -2.2282    0.7045   -0.6452 C   0  0  0  0  0  0  0  0  0  0  0  0
   -3.5661    0.6914   -0.2323 C   0  0  0  0  0  0  0  0  0  0  0  0
   -4.0187   -0.2851    0.6581 C   0  0  0  0  0  0  0  0  0  0  0  0
   -3.1356   -1.2510    1.1444 C   0  0  0  0  0  0  0  0  0  0  0  0
   -1.7985   -1.2462    0.7380 C   0  0  0  0  0  0  0  0  0  0  0  0
   -1.3335   -0.2782   -0.1694 C   0  0  0  0  0  0  0  0  0  0  0  0
    0.1217   -0.2729   -0.5688 C   0  0  0  0  0  0  0  0  0  0  0  0
    0.9318    0.6353    0.3599 C   0  0  0  0  0  0  0  0  0  0  0  0
    2.3757    0.6409   -0.0378 C   0  0  0  0  0  0  0  0  0  0  0  0
    3.3479   -0.2414    0.3823 C   0  0  0  0  0  0  0  0  0  0  0  0
    4.4896    0.1151   -0.3060 C   0  0  0  0  0  0  0  0  0  0  0  0
    4.2332    1.1324   -1.0985 O   0  0  0  0  0  0  0  0  0  0  0  0
    2.9704    1.4688   -0.9671 C   0  0  0  0  0  0  0  0  0  0  0  0
   -4.2558    1.4415   -0.5988 H   0  0  0  0  0  0  0  0  0  0  0  0
   -5.0536   -0.2900    0.9753 H   0  0  0  0  0  0  0  0  0  0  0  0
   -3.4865   -2.0025    1.8399 H   0  0  0  0  0  0  0  0  0  0  0  0
   -1.1245   -1.9969    1.1320 H   0  0  0  0  0  0  0  0  0  0  0  0
    0.2280    0.0698   -1.6213 H   0  0  0  0  0  0  0  0  0  0  0  0
    0.5291   -1.3075   -0.5244 H   0  0  0  0  0  0  0  0  0  0  0  0
    0.5363    1.6734    0.3144 H   0  0  0  0  0  0  0  0  0  0  0  0
    0.8421    0.2773    1.4090 H   0  0  0  0  0  0  0  0  0  0  0  0
    3.2385   -1.0496    1.0933 H   0  0  0  0  0  0  0  0  0  0  0  0
    5.4558   -0.3638   -0.2208 H   0  0  0  0  0  0  0  0  0  0  0  0
    2.4887    2.2689   -1.5136 H   0  0  0  0  0  0  0  0  0  0  0  0
  1  2  1  0
  2  3  2  0
  3  4  1  0
  4  5  2  0
  5  6  1  0
  6  7  2  0
  7  8  1  0
  8  9  1  0
  9 10  1  0
 10 11  1  0
 11 12  2  0
 12 13  1  0
 13 14  1  0
  7  2  1  0
 14 10  2  0
  3 15  1  0
  4 16  1  0
  5 17  1  0
  6 18  1  0
  8 19  1  0
  8 20  1  0
  9 21  1  0
  9 22  1  0
 11 23  1  0
 12 24  1  0
 14 25  1  0
M  RAD  1   1   3
M  END
$$$$
