
     RDKit          3D

 25 26  0  0  0  0  0  0  0  0999 V2000
    1.5547   -0.1818    2.3550 N   0  0  0  0  0  1  0  0  0  0  0  0
    2.1290   -0.0662    1.0548 C   0  0  0  0  0  0  0  0  0  0  0  0
    3.4831   -0.3748    0.8769 C   0  0  0  0  0  0  0  0  0  0  0  0
    4.0655   -0.2841   -0.3895 C   0  0  0  0  0  0  0  0  0  0  0  0
    3.2967    0.1111   -1.4859 C   0  0  0  0  0  0  0  0  0  0  0  0
    1.9444    0.4214   -1.3182 C   0  0  0  0  0  0  0  0  0  0  0  0
    1.3495    0.3488   -0.0465 C   0  0  0  0  0  0  0  0  0  0  0  0
   -0.1200    0.6570    0.1048 C   0  0  0  0  0  0  0  0  0  0  0  0
   -0.9550   -0.6186   -0.0338 C   0  0  0  0  0  0  0  0  0  0  0  0
   -2.4131   -0.3120    0.1176 C   0  0  0  0  0  0  0  0  0  0  0  0
   -3.2814    0.0698   -0.8826 C   0  0  0  0  0  0  0  0  0  0  0  0
   -4.4848    0.3113   -0.2519 C   0  0  0  0  0  0  0  0  0  0  0  0
   -4.3601    0.1049    1.0407 O   0  0  0  0  0  0  0  0  0  0  0  0
   -3.1261   -0.2641    1.2975 C   0  0  0  0  0  0  0  0  0  0  0  0
    4.0846   -0.6894    1.7206 H   0  0  0  0  0  0  0  0  0  0  0  0
    5.1124   -0.5251   -0.5220 H   0  0  0  0  0  0  0  0  0  0  0  0
    3.7480    0.1739   -2.4677 H   0  0  0  0  0  0  0  0  0  0  0  0
    1.3600    0.7172   -2.1808 H   0  0  0  0  0  0  0  0  0  0  0  0
   -0.3116    1.1299    1.0928 H   0  0  0  0  0  0  0  0  0  0  0  0
   -0.4332    1.3918   -0.6700 H   0  0  0  0  0  0  0  0  0  0  0  0
   -0.7787   -1.0776   -1.0313 H   0  0  0  0  0  0  0  0  0  0  0  0
   -0.6539   -1.3549    0.7431 H   0  0  0  0  0  0  0  0  0  0  0  0
   -3.0645    0.1698   -1.9379 H   0  0  0  0  0  0  0  0  0  0  0  0
   -5.4000    0.6280   -0.7338 H   0  0  0  0  0  0  0  0  0  0  0  0
   -2.7453   -0.4864    2.2856 H   0  0  0  0  0  0  0  0  0  0  0  0
  1  2  1  0
  2  3  2  0
  3  4  1  0
  4  5  2  0
  5  6  1  0
  6  7  2  0
  7  8  1  0
  8  9  1  0
  9 10  1  0
 10 11  1  0
 11 12  2  0
 12 13  1  0
 13 14  1  0
  7  2  1  0
 14 10  2  0
  3 15  1  0
  4 16  1  0
  5 17  1  0
  6 18  1  0
  8 19  1  0
  8 20  1  0
  9 21  1  0
  9 22  1  0
 11 23  1  0
 12 24  1  0
 14 25  1  0
M  RAD  1   1   3
M  END
$$$$
