
     RDKit          3D

 25 26  0  0  0  0  0  0  0  0999 V2000
    1.1913   -0.7708    2.5519 N   0  0  0  0  0  1  0  0  0  0  0  0
    1.9411   -0.2909    1.4379 C   0  0  0  0  0  0  0  0  0  0  0  0
    3.3259   -0.4955    1.4082 C   0  0  0  0  0  0  0  0  0  0  0  0
    4.0807   -0.0483    0.3212 C   0  0  0  0  0  0  0  0  0  0  0  0
    3.4549    0.6017   -0.7443 C   0  0  0  0  0  0  0  0  0  0  0  0
    2.0733    0.8107   -0.7236 C   0  0  0  0  0  0  0  0  0  0  0  0
    1.3040    0.3791    0.3712 C   0  0  0  0  0  0  0  0  0  0  0  0
   -0.1906    0.5868    0.3567 C   0  0  0  0  0  0  0  0  0  0  0  0
   -0.8978   -0.6314   -0.2429 C   0  0  0  0  0  0  0  0  0  0  0  0
   -2.3811   -0.4250   -0.2559 C   0  0  0  0  0  0  0  0  0  0  0  0
   -3.1182    0.1828   -1.2495 C   0  0  0  0  0  0  0  0  0  0  0  0
   -4.4164    0.2060   -0.7818 C   0  0  0  0  0  0  0  0  0  0  0  0
   -4.4690   -0.3362    0.4149 O   0  0  0  0  0  0  0  0  0  0  0  0
   -3.2622   -0.7197    0.7637 C   0  0  0  0  0  0  0  0  0  0  0  0
    3.8180   -1.0055    2.2270 H   0  0  0  0  0  0  0  0  0  0  0  0
    5.1507   -0.2103    0.3025 H   0  0  0  0  0  0  0  0  0  0  0  0
    4.0403    0.9411   -1.5890 H   0  0  0  0  0  0  0  0  0  0  0  0
    1.6023    1.3083   -1.5625 H   0  0  0  0  0  0  0  0  0  0  0  0
   -0.5611    0.7700    1.3890 H   0  0  0  0  0  0  0  0  0  0  0  0
   -0.4401    1.4921   -0.2403 H   0  0  0  0  0  0  0  0  0  0  0  0
   -0.5421   -0.7991   -1.2831 H   0  0  0  0  0  0  0  0  0  0  0  0
   -0.6604   -1.5391    0.3537 H   0  0  0  0  0  0  0  0  0  0  0  0
   -2.7559    0.5701   -2.1926 H   0  0  0  0  0  0  0  0  0  0  0  0
   -5.2714    0.6103   -1.3068 H   0  0  0  0  0  0  0  0  0  0  0  0
   -3.0161   -1.1869    1.7082 H   0  0  0  0  0  0  0  0  0  0  0  0
  1  2  1  0
  2  3  2  0
  3  4  1  0
  4  5  2  0
  5  6  1  0
  6  7  2  0
  7  8  1  0
  8  9  1  0
  9 10  1  0
 10 11  1  0
 11 12  2  0
 12 13  1  0
 13 14  1  0
  7  2  1  0
 14 10  2  0
  3 15  1  0
  4 16  1  0
  5 17  1  0
  6 18  1  0
  8 19  1  0
  8 20  1  0
  9 21  1  0
  9 22  1  0
 11 23  1  0
 12 24  1  0
 14 25  1  0
M  RAD  1   1   3
M  END
$$$$
