
     RDKit          3D

 25 26  0  0  0  0  0  0  0  0999 V2000
   -1.2650   -1.9007   -1.9004 N   0  0  0  0  0  1  0  0  0  0  0  0
   -1.9845   -0.9436   -1.1259 C   0  0  0  0  0  0  0  0  0  0  0  0
   -3.3218   -0.6759   -1.4426 C   0  0  0  0  0  0  0  0  0  0  0  0
   -4.0439    0.2683   -0.7088 C   0  0  0  0  0  0  0  0  0  0  0  0
   -3.4319    0.9534    0.3426 C   0  0  0  0  0  0  0  0  0  0  0  0
   -2.0976    0.6928    0.6664 C   0  0  0  0  0  0  0  0  0  0  0  0
   -1.3640   -0.2658   -0.0544 C   0  0  0  0  0  0  0  0  0  0  0  0
    0.0847   -0.5070    0.2922 C   0  0  0  0  0  0  0  0  0  0  0  0
    0.9963    0.3912   -0.5481 C   0  0  0  0  0  0  0  0  0  0  0  0
    2.4339    0.1504   -0.2043 C   0  0  0  0  0  0  0  0  0  0  0  0
    3.1560    0.7698    0.7931 C   0  0  0  0  0  0  0  0  0  0  0  0
    4.3985    0.1696    0.7741 C   0  0  0  0  0  0  0  0  0  0  0  0
    4.4315   -0.7575   -0.1577 O   0  0  0  0  0  0  0  0  0  0  0  0
    3.2651   -0.8000   -0.7599 C   0  0  0  0  0  0  0  0  0  0  0  0
   -3.8017   -1.1973   -2.2614 H   0  0  0  0  0  0  0  0  0  0  0  0
   -5.0770    0.4727   -0.9586 H   0  0  0  0  0  0  0  0  0  0  0  0
   -3.9908    1.6898    0.9055 H   0  0  0  0  0  0  0  0  0  0  0  0
   -1.6353    1.2398    1.4789 H   0  0  0  0  0  0  0  0  0  0  0  0
    0.3454   -1.5748    0.1239 H   0  0  0  0  0  0  0  0  0  0  0  0
    0.2538   -0.3008    1.3725 H   0  0  0  0  0  0  0  0  0  0  0  0
    0.8396    0.1847   -1.6293 H   0  0  0  0  0  0  0  0  0  0  0  0
    0.7488    1.4591   -0.3610 H   0  0  0  0  0  0  0  0  0  0  0  0
    2.8186    1.5537    1.4583 H   0  0  0  0  0  0  0  0  0  0  0  0
    5.2284    0.4111    1.4245 H   0  0  0  0  0  0  0  0  0  0  0  0
    3.0126   -1.4830   -1.5603 H   0  0  0  0  0  0  0  0  0  0  0  0
  1  2  1  0
  2  3  2  0
  3  4  1  0
  4  5  2  0
  5  6  1  0
  6  7  2  0
  7  8  1  0
  8  9  1  0
  9 10  1  0
 10 11  1  0
 11 12  2  0
 12 13  1  0
 13 14  1  0
  7  2  1  0
 14 10  2  0
  3 15  1  0
  4 16  1  0
  5 17  1  0
  6 18  1  0
  8 19  1  0
  8 20  1  0
  9 21  1  0
  9 22  1  0
 11 23  1  0
 12 24  1  0
 14 25  1  0
M  RAD  1   1   3
M  END
$$$$
