
     RDKit          3D

 25 26  0  0  0  0  0  0  0  0999 V2000
   -1.5741   -0.0863    2.7178 N   0  0  0  0  0  1  0  0  0  0  0  0
   -1.7791   -0.1706    1.3092 C   0  0  0  0  0  0  0  0  0  0  0  0
   -2.7588   -1.0388    0.8127 C   0  0  0  0  0  0  0  0  0  0  0  0
   -2.9724   -1.1464   -0.5636 C   0  0  0  0  0  0  0  0  0  0  0  0
   -2.2072   -0.3876   -1.4511 C   0  0  0  0  0  0  0  0  0  0  0  0
   -1.2284    0.4828   -0.9651 C   0  0  0  0  0  0  0  0  0  0  0  0
   -1.0074    0.6057    0.4183 C   0  0  0  0  0  0  0  0  0  0  0  0
    0.0857    1.5215    0.9203 C   0  0  0  0  0  0  0  0  0  0  0  0
    1.3800    0.7547    1.2226 C   0  0  0  0  0  0  0  0  0  0  0  0
    1.9771    0.1619   -0.0194 C   0  0  0  0  0  0  0  0  0  0  0  0
    1.8045   -1.1256   -0.4810 C   0  0  0  0  0  0  0  0  0  0  0  0
    2.4729   -1.1763   -1.6870 C   0  0  0  0  0  0  0  0  0  0  0  0
    3.0078   -0.0044   -1.9499 O   0  0  0  0  0  0  0  0  0  0  0  0
    2.7237    0.8244   -0.9714 C   0  0  0  0  0  0  0  0  0  0  0  0
   -3.3538   -1.6341    1.4940 H   0  0  0  0  0  0  0  0  0  0  0  0
   -3.7295   -1.8208   -0.9423 H   0  0  0  0  0  0  0  0  0  0  0  0
   -2.3701   -0.4765   -2.5174 H   0  0  0  0  0  0  0  0  0  0  0  0
   -0.6359    1.0553   -1.6682 H   0  0  0  0  0  0  0  0  0  0  0  0
    0.2933    2.3234    0.1777 H   0  0  0  0  0  0  0  0  0  0  0  0
   -0.2546    2.0346    1.8455 H   0  0  0  0  0  0  0  0  0  0  0  0
    1.1839   -0.0481    1.9659 H   0  0  0  0  0  0  0  0  0  0  0  0
    2.1154    1.4543    1.6750 H   0  0  0  0  0  0  0  0  0  0  0  0
    1.2476   -1.9236   -0.0079 H   0  0  0  0  0  0  0  0  0  0  0  0
    2.5495   -2.0409   -2.3325 H   0  0  0  0  0  0  0  0  0  0  0  0
    3.0299    1.8616   -0.9376 H   0  0  0  0  0  0  0  0  0  0  0  0
  1  2  1  0
  2  3  2  0
  3  4  1  0
  4  5  2  0
  5  6  1  0
  6  7  2  0
  7  8  1  0
  8  9  1  0
  9 10  1  0
 10 11  1  0
 11 12  2  0
 12 13  1  0
 13 14  1  0
  7  2  1  0
 14 10  2  0
  3 15  1  0
  4 16  1  0
  5 17  1  0
  6 18  1  0
  8 19  1  0
  8 20  1  0
  9 21  1  0
  9 22  1  0
 11 23  1  0
 12 24  1  0
 14 25  1  0
M  RAD  1   1   3
M  END
$$$$
