
     RDKit          3D

 25 26  0  0  0  0  0  0  0  0999 V2000
   -1.9838   -2.4987    0.5105 N   0  0  0  0  0  1  0  0  0  0  0  0
   -1.9601   -1.0729    0.5163 C   0  0  0  0  0  0  0  0  0  0  0  0
   -2.7941   -0.3799    1.4020 C   0  0  0  0  0  0  0  0  0  0  0  0
   -2.7825    1.0166    1.4335 C   0  0  0  0  0  0  0  0  0  0  0  0
   -1.9365    1.7280    0.5807 C   0  0  0  0  0  0  0  0  0  0  0  0
   -1.1019    1.0453   -0.3078 C   0  0  0  0  0  0  0  0  0  0  0  0
   -1.1083   -0.3602   -0.3545 C   0  0  0  0  0  0  0  0  0  0  0  0
   -0.1664   -1.0793   -1.2932 C   0  0  0  0  0  0  0  0  0  0  0  0
    1.1098   -1.5428   -0.5783 C   0  0  0  0  0  0  0  0  0  0  0  0
    1.9297   -0.3822   -0.0976 C   0  0  0  0  0  0  0  0  0  0  0  0
    1.9119    0.1700    1.1655 C   0  0  0  0  0  0  0  0  0  0  0  0
    2.7627    1.2544    1.1045 C   0  0  0  0  0  0  0  0  0  0  0  0
    3.2582    1.3647   -0.1084 O   0  0  0  0  0  0  0  0  0  0  0  0
    2.7735    0.4009   -0.8575 C   0  0  0  0  0  0  0  0  0  0  0  0
   -3.4501   -0.9242    2.0698 H   0  0  0  0  0  0  0  0  0  0  0  0
   -3.4275    1.5474    2.1217 H   0  0  0  0  0  0  0  0  0  0  0  0
   -1.9246    2.8099    0.6105 H   0  0  0  0  0  0  0  0  0  0  0  0
   -0.4434    1.6126   -0.9541 H   0  0  0  0  0  0  0  0  0  0  0  0
   -0.6786   -1.9645   -1.7281 H   0  0  0  0  0  0  0  0  0  0  0  0
    0.1046   -0.4239   -2.1503 H   0  0  0  0  0  0  0  0  0  0  0  0
    1.7203   -2.1442   -1.2858 H   0  0  0  0  0  0  0  0  0  0  0  0
    0.8501   -2.2008    0.2791 H   0  0  0  0  0  0  0  0  0  0  0  0
    1.3385   -0.1641    2.0201 H   0  0  0  0  0  0  0  0  0  0  0  0
    2.9931    1.9252    1.9212 H   0  0  0  0  0  0  0  0  0  0  0  0
    3.0055    0.2625   -1.9052 H   0  0  0  0  0  0  0  0  0  0  0  0
  1  2  1  0
  2  3  2  0
  3  4  1  0
  4  5  2  0
  5  6  1  0
  6  7  2  0
  7  8  1  0
  8  9  1  0
  9 10  1  0
 10 11  1  0
 11 12  2  0
 12 13  1  0
 13 14  1  0
  7  2  1  0
 14 10  2  0
  3 15  1  0
  4 16  1  0
  5 17  1  0
  6 18  1  0
  8 19  1  0
  8 20  1  0
  9 21  1  0
  9 22  1  0
 11 23  1  0
 12 24  1  0
 14 25  1  0
M  RAD  1   1   3
M  END
$$$$
