
     RDKit          3D

 25 26  0  0  0  0  0  0  0  0999 V2000
    1.5065   -0.3587    2.5761 N   0  0  0  0  0  1  0  0  0  0  0  0
    2.1066   -0.1828    1.2945 C   0  0  0  0  0  0  0  0  0  0  0  0
    3.4628    0.1567    1.2168 C   0  0  0  0  0  0  0  0  0  0  0  0
    4.0703    0.3494   -0.0262 C   0  0  0  0  0  0  0  0  0  0  0  0
    3.3246    0.2085   -1.1982 C   0  0  0  0  0  0  0  0  0  0  0  0
    1.9705   -0.1304   -1.1307 C   0  0  0  0  0  0  0  0  0  0  0  0
    1.3504   -0.3420    0.1132 C   0  0  0  0  0  0  0  0  0  0  0  0
   -0.1205   -0.6751    0.1627 C   0  0  0  0  0  0  0  0  0  0  0  0
   -0.9575    0.6001    0.2945 C   0  0  0  0  0  0  0  0  0  0  0  0
   -2.4171    0.2686    0.3445 C   0  0  0  0  0  0  0  0  0  0  0  0
   -3.2639    0.1193   -0.7327 C   0  0  0  0  0  0  0  0  0  0  0  0
   -4.4787   -0.2555   -0.1959 C   0  0  0  0  0  0  0  0  0  0  0  0
   -4.3805   -0.3416    1.1125 O   0  0  0  0  0  0  0  0  0  0  0  0
   -3.1531   -0.0399    1.4697 C   0  0  0  0  0  0  0  0  0  0  0  0
    4.0464    0.2754    2.1211 H   0  0  0  0  0  0  0  0  0  0  0  0
    5.1186    0.6131   -0.0808 H   0  0  0  0  0  0  0  0  0  0  0  0
    3.7953    0.3652   -2.1601 H   0  0  0  0  0  0  0  0  0  0  0  0
    1.4043   -0.2266   -2.0490 H   0  0  0  0  0  0  0  0  0  0  0  0
   -0.3298   -1.3556    1.0168 H   0  0  0  0  0  0  0  0  0  0  0  0
   -0.4158   -1.2189   -0.7621 H   0  0  0  0  0  0  0  0  0  0  0  0
   -0.6745    1.1449    1.2216 H   0  0  0  0  0  0  0  0  0  0  0  0
   -0.7632    1.2692   -0.5721 H   0  0  0  0  0  0  0  0  0  0  0  0
   -3.0258    0.2563   -1.7793 H   0  0  0  0  0  0  0  0  0  0  0  0
   -5.3830   -0.4564   -0.7545 H   0  0  0  0  0  0  0  0  0  0  0  0
   -2.7929   -0.0431    2.4900 H   0  0  0  0  0  0  0  0  0  0  0  0
  1  2  1  0
  2  3  2  0
  3  4  1  0
  4  5  2  0
  5  6  1  0
  6  7  2  0
  7  8  1  0
  8  9  1  0
  9 10  1  0
 10 11  1  0
 11 12  2  0
 12 13  1  0
 13 14  1  0
  7  2  1  0
 14 10  2  0
  3 15  1  0
  4 16  1  0
  5 17  1  0
  6 18  1  0
  8 19  1  0
  8 20  1  0
  9 21  1  0
  9 22  1  0
 11 23  1  0
 12 24  1  0
 14 25  1  0
M  RAD  1   1   3
M  END
$$$$
