
     RDKit          3D

 25 26  0  0  0  0  0  0  0  0999 V2000
   -2.0404   -2.4292    0.4840 N   0  0  0  0  0  1  0  0  0  0  0  0
   -2.0013   -1.0209    0.2637 C   0  0  0  0  0  0  0  0  0  0  0  0
   -2.9344   -0.2025    0.9115 C   0  0  0  0  0  0  0  0  0  0  0  0
   -2.9110    1.1809    0.7195 C   0  0  0  0  0  0  0  0  0  0  0  0
   -1.9541    1.7540   -0.1201 C   0  0  0  0  0  0  0  0  0  0  0  0
   -1.0198    0.9453   -0.7723 C   0  0  0  0  0  0  0  0  0  0  0  0
   -1.0363   -0.4494   -0.5930 C   0  0  0  0  0  0  0  0  0  0  0  0
    0.0104   -1.3011   -1.2746 C   0  0  0  0  0  0  0  0  0  0  0  0
    1.1785   -1.6316   -0.3360 C   0  0  0  0  0  0  0  0  0  0  0  0
    1.9429   -0.4011    0.0537 C   0  0  0  0  0  0  0  0  0  0  0  0
    1.7689    0.3468    1.1987 C   0  0  0  0  0  0  0  0  0  0  0  0
    2.6329    1.4153    1.0746 C   0  0  0  0  0  0  0  0  0  0  0  0
    3.2818    1.3338   -0.0661 O   0  0  0  0  0  0  0  0  0  0  0  0
    2.8865    0.2576   -0.7068 C   0  0  0  0  0  0  0  0  0  0  0  0
   -3.6772   -0.6385    1.5678 H   0  0  0  0  0  0  0  0  0  0  0  0
   -3.6331    1.8094    1.2245 H   0  0  0  0  0  0  0  0  0  0  0  0
   -1.9337    2.8267   -0.2632 H   0  0  0  0  0  0  0  0  0  0  0  0
   -0.2771    1.4076   -1.4109 H   0  0  0  0  0  0  0  0  0  0  0  0
   -0.4516   -2.2495   -1.6241 H   0  0  0  0  0  0  0  0  0  0  0  0
    0.3971   -0.7894   -2.1837 H   0  0  0  0  0  0  0  0  0  0  0  0
    0.8029   -2.1456    0.5752 H   0  0  0  0  0  0  0  0  0  0  0  0
    1.8681   -2.3331   -0.8530 H   0  0  0  0  0  0  0  0  0  0  0  0
    1.0863    0.1490    2.0147 H   0  0  0  0  0  0  0  0  0  0  0  0
    2.7638    2.2108    1.7957 H   0  0  0  0  0  0  0  0  0  0  0  0
    3.2500   -0.0452   -1.6798 H   0  0  0  0  0  0  0  0  0  0  0  0
  1  2  1  0
  2  3  2  0
  3  4  1  0
  4  5  2  0
  5  6  1  0
  6  7  2  0
  7  8  1  0
  8  9  1  0
  9 10  1  0
 10 11  1  0
 11 12  2  0
 12 13  1  0
 13 14  1  0
  7  2  1  0
 14 10  2  0
  3 15  1  0
  4 16  1  0
  5 17  1  0
  6 18  1  0
  8 19  1  0
  8 20  1  0
  9 21  1  0
  9 22  1  0
 11 23  1  0
 12 24  1  0
 14 25  1  0
M  RAD  1   1   3
M  END
$$$$
