
     RDKit          3D

 25 26  0  0  0  0  0  0  0  0999 V2000
   -1.9208   -2.3149    1.3215 N   0  0  0  0  0  1  0  0  0  0  0  0
   -1.9429   -0.9793    0.8224 C   0  0  0  0  0  0  0  0  0  0  0  0
   -2.8510   -0.0625    1.3655 C   0  0  0  0  0  0  0  0  0  0  0  0
   -2.8857    1.2541    0.9002 C   0  0  0  0  0  0  0  0  0  0  0  0
   -2.0123    1.6619   -0.1096 C   0  0  0  0  0  0  0  0  0  0  0  0
   -1.1036    0.7538   -0.6589 C   0  0  0  0  0  0  0  0  0  0  0  0
   -1.0625   -0.5764   -0.2044 C   0  0  0  0  0  0  0  0  0  0  0  0
   -0.0426   -1.5307   -0.7828 C   0  0  0  0  0  0  0  0  0  0  0  0
    1.2016   -1.6465    0.1078 C   0  0  0  0  0  0  0  0  0  0  0  0
    1.9533   -0.3505    0.1828 C   0  0  0  0  0  0  0  0  0  0  0  0
    1.8408    0.6096    1.1658 C   0  0  0  0  0  0  0  0  0  0  0  0
    2.6588    1.6452    0.7634 C   0  0  0  0  0  0  0  0  0  0  0  0
    3.2237    1.3464   -0.3857 O   0  0  0  0  0  0  0  0  0  0  0  0
    2.8165    0.1570   -0.7657 C   0  0  0  0  0  0  0  0  0  0  0  0
   -3.5290   -0.3695    2.1520 H   0  0  0  0  0  0  0  0  0  0  0  0
   -3.5882    1.9595    1.3250 H   0  0  0  0  0  0  0  0  0  0  0  0
   -2.0365    2.6840   -0.4649 H   0  0  0  0  0  0  0  0  0  0  0  0
   -0.4252    1.0901   -1.4334 H   0  0  0  0  0  0  0  0  0  0  0  0
    0.2594   -1.2063   -1.8032 H   0  0  0  0  0  0  0  0  0  0  0  0
   -0.4989   -2.5374   -0.8986 H   0  0  0  0  0  0  0  0  0  0  0  0
    0.9110   -1.9726    1.1299 H   0  0  0  0  0  0  0  0  0  0  0  0
    1.8730   -2.4263   -0.3116 H   0  0  0  0  0  0  0  0  0  0  0  0
    1.2272    0.5690    2.0561 H   0  0  0  0  0  0  0  0  0  0  0  0
    2.8174    2.5716    1.2988 H   0  0  0  0  0  0  0  0  0  0  0  0
    3.1164   -0.3294   -1.6845 H   0  0  0  0  0  0  0  0  0  0  0  0
  1  2  1  0
  2  3  2  0
  3  4  1  0
  4  5  2  0
  5  6  1  0
  6  7  2  0
  7  8  1  0
  8  9  1  0
  9 10  1  0
 10 11  1  0
 11 12  2  0
 12 13  1  0
 13 14  1  0
  7  2  1  0
 14 10  2  0
  3 15  1  0
  4 16  1  0
  5 17  1  0
  6 18  1  0
  8 19  1  0
  8 20  1  0
  9 21  1  0
  9 22  1  0
 11 23  1  0
 12 24  1  0
 14 25  1  0
M  RAD  1   1   3
M  END
$$$$
