
     RDKit          3D

 25 26  0  0  0  0  0  0  0  0999 V2000
   -1.9370   -0.8436    2.4155 N   0  0  0  0  0  1  0  0  0  0  0  0
   -1.9567   -0.4237    1.0529 C   0  0  0  0  0  0  0  0  0  0  0  0
   -2.9213   -0.9555    0.1886 C   0  0  0  0  0  0  0  0  0  0  0  0
   -2.9555   -0.5672   -1.1528 C   0  0  0  0  0  0  0  0  0  0  0  0
   -2.0252    0.3537   -1.6379 C   0  0  0  0  0  0  0  0  0  0  0  0
   -1.0599    0.8911   -0.7827 C   0  0  0  0  0  0  0  0  0  0  0  0
   -1.0182    0.5140    0.5715 C   0  0  0  0  0  0  0  0  0  0  0  0
    0.0611    1.0753    1.4689 C   0  0  0  0  0  0  0  0  0  0  0  0
    1.2441    0.1088    1.6138 C   0  0  0  0  0  0  0  0  0  0  0  0
    1.9579   -0.0944    0.3101 C   0  0  0  0  0  0  0  0  0  0  0  0
    1.7559   -1.1220   -0.5865 C   0  0  0  0  0  0  0  0  0  0  0  0
    2.5747   -0.8390   -1.6604 C   0  0  0  0  0  0  0  0  0  0  0  0
    3.2236    0.2836   -1.4426 O   0  0  0  0  0  0  0  0  0  0  0  0
    2.8716    0.7603   -0.2705 C   0  0  0  0  0  0  0  0  0  0  0  0
   -3.6439   -1.6735    0.5558 H   0  0  0  0  0  0  0  0  0  0  0  0
   -3.7018   -0.9830   -1.8174 H   0  0  0  0  0  0  0  0  0  0  0  0
   -2.0495    0.6490   -2.6789 H   0  0  0  0  0  0  0  0  0  0  0  0
   -0.3384    1.5955   -1.1784 H   0  0  0  0  0  0  0  0  0  0  0  0
    0.4241    2.0514    1.0776 H   0  0  0  0  0  0  0  0  0  0  0  0
   -0.3622    1.2816    2.4755 H   0  0  0  0  0  0  0  0  0  0  0  0
    0.8923   -0.8697    2.0066 H   0  0  0  0  0  0  0  0  0  0  0  0
    1.9609    0.5258    2.3535 H   0  0  0  0  0  0  0  0  0  0  0  0
    1.0841   -1.9636   -0.4802 H   0  0  0  0  0  0  0  0  0  0  0  0
    2.6743   -1.4378   -2.5557 H   0  0  0  0  0  0  0  0  0  0  0  0
    3.2449    1.6831    0.1536 H   0  0  0  0  0  0  0  0  0  0  0  0
  1  2  1  0
  2  3  2  0
  3  4  1  0
  4  5  2  0
  5  6  1  0
  6  7  2  0
  7  8  1  0
  8  9  1  0
  9 10  1  0
 10 11  1  0
 11 12  2  0
 12 13  1  0
 13 14  1  0
  7  2  1  0
 14 10  2  0
  3 15  1  0
  4 16  1  0
  5 17  1  0
  6 18  1  0
  8 19  1  0
  8 20  1  0
  9 21  1  0
  9 22  1  0
 11 23  1  0
 12 24  1  0
 14 25  1  0
M  RAD  1   1   3
M  END
$$$$
