
     RDKit          3D

 25 26  0  0  0  0  0  0  0  0999 V2000
    2.0146   -2.3928   -0.6717 N   0  0  0  0  0  1  0  0  0  0  0  0
    1.9894   -1.0076   -0.3338 C   0  0  0  0  0  0  0  0  0  0  0  0
    2.9188   -0.1436   -0.9254 C   0  0  0  0  0  0  0  0  0  0  0  0
    2.9086    1.2189   -0.6181 C   0  0  0  0  0  0  0  0  0  0  0  0
    1.9687    1.7257    0.2814 C   0  0  0  0  0  0  0  0  0  0  0  0
    1.0383    0.8710    0.8781 C   0  0  0  0  0  0  0  0  0  0  0  0
    1.0416   -0.5039    0.5826 C   0  0  0  0  0  0  0  0  0  0  0  0
   -0.0010   -1.4032    1.2068 C   0  0  0  0  0  0  0  0  0  0  0  0
   -1.1855   -1.6467    0.2622 C   0  0  0  0  0  0  0  0  0  0  0  0
   -1.9464   -0.3832   -0.0113 C   0  0  0  0  0  0  0  0  0  0  0  0
   -1.7840    0.4569   -1.0924 C   0  0  0  0  0  0  0  0  0  0  0  0
   -2.6380    1.5166   -0.8658 C   0  0  0  0  0  0  0  0  0  0  0  0
   -3.2703    1.3439    0.2740 O   0  0  0  0  0  0  0  0  0  0  0  0
   -2.8735    0.2154    0.8162 C   0  0  0  0  0  0  0  0  0  0  0  0
    3.6484   -0.5278   -1.6273 H   0  0  0  0  0  0  0  0  0  0  0  0
    3.6278    1.8830   -1.0799 H   0  0  0  0  0  0  0  0  0  0  0  0
    1.9584    2.7827    0.5139 H   0  0  0  0  0  0  0  0  0  0  0  0
    0.3088    1.2828    1.5646 H   0  0  0  0  0  0  0  0  0  0  0  0
    0.4591   -2.3803    1.4685 H   0  0  0  0  0  0  0  0  0  0  0  0
   -0.3702   -0.9670    2.1614 H   0  0  0  0  0  0  0  0  0  0  0  0
   -1.8725   -2.3846    0.7294 H   0  0  0  0  0  0  0  0  0  0  0  0
   -0.8275   -2.0849   -0.6946 H   0  0  0  0  0  0  0  0  0  0  0  0
   -1.1154    0.3239   -1.9326 H   0  0  0  0  0  0  0  0  0  0  0  0
   -2.7738    2.3705   -1.5158 H   0  0  0  0  0  0  0  0  0  0  0  0
   -3.2245   -0.1655    1.7661 H   0  0  0  0  0  0  0  0  0  0  0  0
  1  2  1  0
  2  3  2  0
  3  4  1  0
  4  5  2  0
  5  6  1  0
  6  7  2  0
  7  8  1  0
  8  9  1  0
  9 10  1  0
 10 11  1  0
 11 12  2  0
 12 13  1  0
 13 14  1  0
  7  2  1  0
 14 10  2  0
  3 15  1  0
  4 16  1  0
  5 17  1  0
  6 18  1  0
  8 19  1  0
  8 20  1  0
  9 21  1  0
  9 22  1  0
 11 23  1  0
 12 24  1  0
 14 25  1  0
M  RAD  1   1   3
M  END
$$$$
