 xtb: 6.7.1 (edcfbbe)
          09082600313D

 30 32  0     0  0            999 V2000
    1.2622   -3.0366    0.8999 N   0  0  0  0  0  0  0  0  0  0  0  0
    0.5616   -2.1562    0.8463 N   0  0  0  0  0  0  0  0  0  0  0  0
   -0.0300   -1.1367    0.9609 N   0  0  0  0  0  0  0  0  0  0  0  0
   -1.1708   -0.6642    0.3468 C   0  0  0  0  0  0  0  0  0  0  0  0
   -1.9036   -1.4568   -0.5372 C   0  0  0  0  0  0  0  0  0  0  0  0
   -3.0499   -0.9569   -1.1228 C   0  0  0  0  0  0  0  0  0  0  0  0
   -3.4745    0.3287   -0.8279 C   0  0  0  0  0  0  0  0  0  0  0  0
   -2.7438    1.1119    0.0494 C   0  0  0  0  0  0  0  0  0  0  0  0
   -1.5875    0.6370    0.6504 C   0  0  0  0  0  0  0  0  0  0  0  0
   -0.7721    1.5145    1.5526 C   0  0  0  0  0  0  0  0  0  0  0  0
    0.2251    2.3625    0.7347 C   0  0  0  0  0  0  0  0  0  0  0  0
    1.2044    1.4834    0.0127 C   0  0  0  0  0  0  0  0  0  0  0  0
    0.9538    1.0599   -1.2867 C   0  0  0  0  0  0  0  0  0  0  0  0
    1.8286    0.2021   -1.9310 C   0  0  0  0  0  0  0  0  0  0  0  0
    2.9687   -0.2429   -1.2835 C   0  0  0  0  0  0  0  0  0  0  0  0
    3.2305    0.1775    0.0101 C   0  0  0  0  0  0  0  0  0  0  0  0
    2.3532    1.0329    0.6522 C   0  0  0  0  0  0  0  0  0  0  0  0
   -1.5637   -2.4590   -0.7590 H   0  0  0  0  0  0  0  0  0  0  0  0
   -3.6120   -1.5735   -1.8080 H   0  0  0  0  0  0  0  0  0  0  0  0
   -4.3725    0.7195   -1.2817 H   0  0  0  0  0  0  0  0  0  0  0  0
   -3.0755    2.1150    0.2756 H   0  0  0  0  0  0  0  0  0  0  0  0
   -0.2158    0.8999    2.2615 H   0  0  0  0  0  0  0  0  0  0  0  0
   -1.4305    2.1858    2.1063 H   0  0  0  0  0  0  0  0  0  0  0  0
   -0.3305    2.9684    0.0167 H   0  0  0  0  0  0  0  0  0  0  0  0
    0.7555    3.0288    1.4171 H   0  0  0  0  0  0  0  0  0  0  0  0
    0.0635    1.4010   -1.7965 H   0  0  0  0  0  0  0  0  0  0  0  0
    1.6181   -0.1215   -2.9403 H   0  0  0  0  0  0  0  0  0  0  0  0
    3.6501   -0.9154   -1.7834 H   0  0  0  0  0  0  0  0  0  0  0  0
    4.1186   -0.1668    0.5201 H   0  0  0  0  0  0  0  0  0  0  0  0
    2.5601    1.3538    1.6635 H   0  0  0  0  0  0  0  0  0  0  0  0
  1  2  2  0  0  0  0
  1  3  1  0  0  0  0
  2  3  2  0  0  0  0
  3  4  1  0  0  0  0
  4  5  4  0  0  0  0
  5  6  4  0  0  0  0
  6  7  4  0  0  0  0
  7  8  4  0  0  0  0
  4  9  4  0  0  0  0
  8  9  4  0  0  0  0
  9 10  1  0  0  0  0
 10 11  1  0  0  0  0
 11 12  1  0  0  0  0
 12 13  4  0  0  0  0
 13 14  4  0  0  0  0
 14 15  4  0  0  0  0
 15 16  4  0  0  0  0
 12 17  4  0  0  0  0
 16 17  4  0  0  0  0
  5 18  1  0  0  0  0
  6 19  1  0  0  0  0
  7 20  1  0  0  0  0
  8 21  1  0  0  0  0
 10 22  1  0  0  0  0
 10 23  1  0  0  0  0
 11 24  1  0  0  0  0
 11 25  1  0  0  0  0
 13 26  1  0  0  0  0
 14 27  1  0  0  0  0
 15 28  1  0  0  0  0
 16 29  1  0  0  0  0
 17 30  1  0  0  0  0
M  END
