
     RDKit          3D

 27 28  0  0  0  0  0  0  0  0999 V2000
   -1.0226    1.1873   -1.5630 N   0  0  0  0  0  1  0  0  0  0  0  0
   -1.6962    0.6501   -0.4269 C   0  0  0  0  0  0  0  0  0  0  0  0
   -2.4385    1.4995    0.3983 C   0  0  0  0  0  0  0  0  0  0  0  0
   -3.0922    0.9871    1.5192 C   0  0  0  0  0  0  0  0  0  0  0  0
   -2.9930   -0.3751    1.8040 C   0  0  0  0  0  0  0  0  0  0  0  0
   -2.2657   -1.1890    0.9940 N   0  0  0  0  0  0  0  0  0  0  0  0
   -1.6224   -0.7224   -0.1128 C   0  0  0  0  0  0  0  0  0  0  0  0
   -0.8012   -1.6849   -0.9320 C   0  0  0  0  0  0  0  0  0  0  0  0
    0.5681   -1.9491   -0.2917 C   0  0  0  0  0  0  0  0  0  0  0  0
    1.4319   -0.7139   -0.2853 C   0  0  0  0  0  0  0  0  0  0  0  0
    1.4889    0.1078    0.8535 C   0  0  0  0  0  0  0  0  0  0  0  0
    2.2561    1.2766    0.8407 C   0  0  0  0  0  0  0  0  0  0  0  0
    2.9671    1.6353   -0.3077 C   0  0  0  0  0  0  0  0  0  0  0  0
    2.9099    0.8270   -1.4465 C   0  0  0  0  0  0  0  0  0  0  0  0
    2.1427   -0.3420   -1.4385 C   0  0  0  0  0  0  0  0  0  0  0  0
   -2.5067    2.5565    0.1734 H   0  0  0  0  0  0  0  0  0  0  0  0
   -3.6679    1.6397    2.1626 H   0  0  0  0  0  0  0  0  0  0  0  0
   -3.4911   -0.7858    2.6720 H   0  0  0  0  0  0  0  0  0  0  0  0
   -0.6714   -1.3214   -1.9742 H   0  0  0  0  0  0  0  0  0  0  0  0
   -1.3506   -2.6488   -0.9995 H   0  0  0  0  0  0  0  0  0  0  0  0
    0.4314   -2.3334    0.7434 H   0  0  0  0  0  0  0  0  0  0  0  0
    1.0821   -2.7518   -0.8641 H   0  0  0  0  0  0  0  0  0  0  0  0
    0.9325   -0.1516    1.7458 H   0  0  0  0  0  0  0  0  0  0  0  0
    2.2958    1.9066    1.7198 H   0  0  0  0  0  0  0  0  0  0  0  0
    3.5592    2.5412   -0.3165 H   0  0  0  0  0  0  0  0  0  0  0  0
    3.4565    1.1088   -2.3372 H   0  0  0  0  0  0  0  0  0  0  0  0
    2.0973   -0.9541   -2.3308 H   0  0  0  0  0  0  0  0  0  0  0  0
  1  2  1  0
  2  3  1  0
  3  4  2  0
  4  5  1  0
  5  6  2  0
  6  7  1  0
  7  8  1  0
  8  9  1  0
  9 10  1  0
 10 11  2  0
 11 12  1  0
 12 13  2  0
 13 14  1  0
 14 15  2  0
  7  2  2  0
 15 10  1  0
  3 16  1  0
  4 17  1  0
  5 18  1  0
  8 19  1  0
  8 20  1  0
  9 21  1  0
  9 22  1  0
 11 23  1  0
 12 24  1  0
 13 25  1  0
 14 26  1  0
 15 27  1  0
M  RAD  1   1   3
M  END
$$$$
