
     RDKit          3D

 27 28  0  0  0  0  0  0  0  0999 V2000
   -2.2855   -2.1276   -0.0848 N   0  0  0  0  0  1  0  0  0  0  0  0
   -2.7841   -0.8048    0.1015 C   0  0  0  0  0  0  0  0  0  0  0  0
   -4.1360   -0.5366   -0.1323 C   0  0  0  0  0  0  0  0  0  0  0  0
   -4.6290    0.7578    0.0365 C   0  0  0  0  0  0  0  0  0  0  0  0
   -3.7591    1.7733    0.4358 C   0  0  0  0  0  0  0  0  0  0  0  0
   -2.4469    1.4972    0.6597 N   0  0  0  0  0  0  0  0  0  0  0  0
   -1.9369    0.2421    0.5150 C   0  0  0  0  0  0  0  0  0  0  0  0
   -0.4676    0.0223    0.7499 C   0  0  0  0  0  0  0  0  0  0  0  0
    0.3111    0.1284   -0.5645 C   0  0  0  0  0  0  0  0  0  0  0  0
    1.7810   -0.0910   -0.3273 C   0  0  0  0  0  0  0  0  0  0  0  0
    2.3185   -1.3887   -0.3638 C   0  0  0  0  0  0  0  0  0  0  0  0
    3.6784   -1.5948   -0.1110 C   0  0  0  0  0  0  0  0  0  0  0  0
    4.5075   -0.5104    0.1890 C   0  0  0  0  0  0  0  0  0  0  0  0
    3.9773    0.7817    0.2409 C   0  0  0  0  0  0  0  0  0  0  0  0
    2.6180    0.9924   -0.0112 C   0  0  0  0  0  0  0  0  0  0  0  0
   -4.8034   -1.3289   -0.4475 H   0  0  0  0  0  0  0  0  0  0  0  0
   -5.6742    0.9728   -0.1440 H   0  0  0  0  0  0  0  0  0  0  0  0
   -4.1261    2.7827    0.5653 H   0  0  0  0  0  0  0  0  0  0  0  0
   -0.0932    0.7881    1.4647 H   0  0  0  0  0  0  0  0  0  0  0  0
   -0.2997   -0.9739    1.2145 H   0  0  0  0  0  0  0  0  0  0  0  0
    0.1479    1.1320   -1.0162 H   0  0  0  0  0  0  0  0  0  0  0  0
   -0.0677   -0.6252   -1.2896 H   0  0  0  0  0  0  0  0  0  0  0  0
    1.6848   -2.2384   -0.5859 H   0  0  0  0  0  0  0  0  0  0  0  0
    4.0887   -2.5958   -0.1443 H   0  0  0  0  0  0  0  0  0  0  0  0
    5.5595   -0.6719    0.3857 H   0  0  0  0  0  0  0  0  0  0  0  0
    4.6190    1.6199    0.4799 H   0  0  0  0  0  0  0  0  0  0  0  0
    2.2177    1.9973    0.0413 H   0  0  0  0  0  0  0  0  0  0  0  0
  1  2  1  0
  2  3  1  0
  3  4  2  0
  4  5  1  0
  5  6  2  0
  6  7  1  0
  7  8  1  0
  8  9  1  0
  9 10  1  0
 10 11  2  0
 11 12  1  0
 12 13  2  0
 13 14  1  0
 14 15  2  0
  7  2  2  0
 15 10  1  0
  3 16  1  0
  4 17  1  0
  5 18  1  0
  8 19  1  0
  8 20  1  0
  9 21  1  0
  9 22  1  0
 11 23  1  0
 12 24  1  0
 13 25  1  0
 14 26  1  0
 15 27  1  0
M  RAD  1   1   3
M  END
$$$$
