
     RDKit          3D

 27 28  0  0  0  0  0  0  0  0999 V2000
   -1.9757    2.3280    0.7148 N   0  0  0  0  0  1  0  0  0  0  0  0
   -2.6526    1.1187    0.3793 C   0  0  0  0  0  0  0  0  0  0  0  0
   -4.0079    0.9762    0.6902 C   0  0  0  0  0  0  0  0  0  0  0  0
   -4.6743   -0.2087    0.3757 C   0  0  0  0  0  0  0  0  0  0  0  0
   -3.9727   -1.2426   -0.2460 C   0  0  0  0  0  0  0  0  0  0  0  0
   -2.6548   -1.0893   -0.5424 N   0  0  0  0  0  0  0  0  0  0  0  0
   -1.9784    0.0590   -0.2590 C   0  0  0  0  0  0  0  0  0  0  0  0
   -0.5132    0.1404   -0.5887 C   0  0  0  0  0  0  0  0  0  0  0  0
    0.3356   -0.2627    0.6206 C   0  0  0  0  0  0  0  0  0  0  0  0
    1.8013   -0.1811    0.2886 C   0  0  0  0  0  0  0  0  0  0  0  0
    2.5027    1.0228    0.4698 C   0  0  0  0  0  0  0  0  0  0  0  0
    3.8567    1.1066    0.1303 C   0  0  0  0  0  0  0  0  0  0  0  0
    4.5161   -0.0055   -0.4005 C   0  0  0  0  0  0  0  0  0  0  0  0
    3.8215   -1.2024   -0.5967 C   0  0  0  0  0  0  0  0  0  0  0  0
    2.4674   -1.2906   -0.2585 C   0  0  0  0  0  0  0  0  0  0  0  0
   -4.5439    1.7808    1.1778 H   0  0  0  0  0  0  0  0  0  0  0  0
   -5.7233   -0.3263    0.6147 H   0  0  0  0  0  0  0  0  0  0  0  0
   -4.4749   -2.1689   -0.4908 H   0  0  0  0  0  0  0  0  0  0  0  0
   -0.2512    1.1713   -0.9132 H   0  0  0  0  0  0  0  0  0  0  0  0
   -0.2916   -0.5407   -1.4398 H   0  0  0  0  0  0  0  0  0  0  0  0
    0.1087    0.4054    1.4806 H   0  0  0  0  0  0  0  0  0  0  0  0
    0.0765   -1.2993    0.9309 H   0  0  0  0  0  0  0  0  0  0  0  0
    2.0009    1.8944    0.8715 H   0  0  0  0  0  0  0  0  0  0  0  0
    4.3939    2.0350    0.2755 H   0  0  0  0  0  0  0  0  0  0  0  0
    5.5637    0.0615   -0.6640 H   0  0  0  0  0  0  0  0  0  0  0  0
    4.3315   -2.0610   -1.0140 H   0  0  0  0  0  0  0  0  0  0  0  0
    1.9382   -2.2209   -0.4241 H   0  0  0  0  0  0  0  0  0  0  0  0
  1  2  1  0
  2  3  1  0
  3  4  2  0
  4  5  1  0
  5  6  2  0
  6  7  1  0
  7  8  1  0
  8  9  1  0
  9 10  1  0
 10 11  2  0
 11 12  1  0
 12 13  2  0
 13 14  1  0
 14 15  2  0
  7  2  2  0
 15 10  1  0
  3 16  1  0
  4 17  1  0
  5 18  1  0
  8 19  1  0
  8 20  1  0
  9 21  1  0
  9 22  1  0
 11 23  1  0
 12 24  1  0
 13 25  1  0
 14 26  1  0
 15 27  1  0
M  RAD  1   1   3
M  END
$$$$
