 xtb: 6.7.1 (edcfbbe)
          07312615273D

238258  0     0  0            999 V2000
    0.1699   -1.7268   -0.9074 N   0  0  0  0  0  0  0  0  0  0  0  0
   -0.0584   -1.0574    1.8539 N   0  0  0  0  0  0  0  0  0  0  0  0
   -0.4339   -0.9563   -3.1894 C   0  0  0  0  0  0  0  0  0  0  0  0
    0.0103   -1.9176   -2.2545 C   0  0  0  0  0  0  0  0  0  0  0  0
    0.4245   -3.2627   -2.6111 C   0  0  0  0  0  0  0  0  0  0  0  0
    0.3912   -3.6743   -3.6209 H   0  0  0  0  0  0  0  0  0  0  0  0
    0.8595   -3.8580   -1.4617 C   0  0  0  0  0  0  0  0  0  0  0  0
    1.2577   -4.8647   -1.3284 H   0  0  0  0  0  0  0  0  0  0  0  0
    0.6645   -2.8991   -0.3898 C   0  0  0  0  0  0  0  0  0  0  0  0
    0.8592   -3.1921    0.9739 C   0  0  0  0  0  0  0  0  0  0  0  0
    0.4515   -2.3232    2.0063 C   0  0  0  0  0  0  0  0  0  0  0  0
    0.3902   -2.7045    3.4039 C   0  0  0  0  0  0  0  0  0  0  0  0
    0.7323   -3.6622    3.7991 H   0  0  0  0  0  0  0  0  0  0  0  0
   -0.2057   -1.6727    4.0734 C   0  0  0  0  0  0  0  0  0  0  0  0
   -0.4461   -1.5966    5.1347 H   0  0  0  0  0  0  0  0  0  0  0  0
   -0.4697   -0.6369    3.0938 C   0  0  0  0  0  0  0  0  0  0  0  0
    1.4138   -4.5395    1.3548 C   0  0  0  0  0  0  0  0  0  0  0  0
    2.7588   -4.6809    1.7715 C   0  0  0  0  0  0  0  0  0  0  0  0
    3.2854   -5.9345    2.1325 C   0  0  0  0  0  0  0  0  0  0  0  0
    2.4630   -7.0631    2.0687 C   0  0  0  0  0  0  0  0  0  0  0  0
    2.8730   -8.0452    2.3389 H   0  0  0  0  0  0  0  0  0  0  0  0
    1.1295   -6.9635    1.6635 C   0  0  0  0  0  0  0  0  0  0  0  0
    0.6071   -5.7024    1.3188 C   0  0  0  0  0  0  0  0  0  0  0  0
   -0.8248    1.6175    1.1351 N   0  0  0  0  0  0  0  0  0  0  0  0
   -0.5654    0.9586   -1.6065 N   0  0  0  0  0  0  0  0  0  0  0  0
   -1.0359    0.6185    3.4033 C   0  0  0  0  0  0  0  0  0  0  0  0
   -1.1365    1.6733    2.4706 C   0  0  0  0  0  0  0  0  0  0  0  0
   -1.5194    3.0268    2.8244 C   0  0  0  0  0  0  0  0  0  0  0  0
   -1.8319    3.3396    3.8217 H   0  0  0  0  0  0  0  0  0  0  0  0
   -1.3893    3.7837    1.6943 C   0  0  0  0  0  0  0  0  0  0  0  0
   -1.5815    4.8495    1.5665 H   0  0  0  0  0  0  0  0  0  0  0  0
   -0.9921    2.8849    0.6291 C   0  0  0  0  0  0  0  0  0  0  0  0
   -0.8864    3.2568   -0.7237 C   0  0  0  0  0  0  0  0  0  0  0  0
   -0.7673    2.3082   -1.7576 C   0  0  0  0  0  0  0  0  0  0  0  0
   -0.9821    2.6145   -3.1560 C   0  0  0  0  0  0  0  0  0  0  0  0
   -1.1675    3.6136   -3.5497 H   0  0  0  0  0  0  0  0  0  0  0  0
   -0.9543    1.4284   -3.8335 C   0  0  0  0  0  0  0  0  0  0  0  0
   -1.1095    1.2480   -4.8977 H   0  0  0  0  0  0  0  0  0  0  0  0
   -0.6583    0.3964   -2.8590 C   0  0  0  0  0  0  0  0  0  0  0  0
   -0.9738    4.7086   -1.1085 C   0  0  0  0  0  0  0  0  0  0  0  0
    0.2036    5.4112   -1.4644 C   0  0  0  0  0  0  0  0  0  0  0  0
    0.1534    6.7529   -1.8844 C   0  0  0  0  0  0  0  0  0  0  0  0
   -1.0797    7.4100   -1.9170 C   0  0  0  0  0  0  0  0  0  0  0  0
   -1.1228    8.4604   -2.2333 H   0  0  0  0  0  0  0  0  0  0  0  0
   -2.2601    6.7531   -1.5564 C   0  0  0  0  0  0  0  0  0  0  0  0
   -2.2058    5.4008   -1.1696 C   0  0  0  0  0  0  0  0  0  0  0  0
   -0.2208   -0.0177    0.1169 Fe  0  0  0  0  0  0  0  0  0  0  0  0
   -2.4446   -0.6676    0.1106 Cl  0  0  0  0  0  0  0  0  0  0  0  0
   -1.6121    0.8232    4.7831 C   0  0  0  0  0  0  0  0  0  0  0  0
   -0.8427    1.3682    5.8455 C   0  0  0  0  0  0  0  0  0  0  0  0
   -2.9666    0.4563    5.0191 C   0  0  0  0  0  0  0  0  0  0  0  0
   -1.4145    1.5490    7.1208 C   0  0  0  0  0  0  0  0  0  0  0  0
    0.5015    1.7295    5.5684 N   0  0  0  0  0  0  0  0  0  0  0  0
   -3.5348    0.6620    6.2947 C   0  0  0  0  0  0  0  0  0  0  0  0
   -3.6959   -0.1364    3.9610 N   0  0  0  0  0  0  0  0  0  0  0  0
   -0.8006    1.9565    7.9286 H   0  0  0  0  0  0  0  0  0  0  0  0
   -2.7533    1.1991    7.3210 C   0  0  0  0  0  0  0  0  0  0  0  0
    1.4799    2.1467    6.4423 C   0  0  0  0  0  0  0  0  0  0  0  0
    0.7671    1.6335    4.5867 H   0  0  0  0  0  0  0  0  0  0  0  0
   -4.5829    0.3954    6.4528 H   0  0  0  0  0  0  0  0  0  0  0  0
   -5.0229   -0.5189    3.9488 C   0  0  0  0  0  0  0  0  0  0  0  0
   -3.1704   -0.3057    3.0980 H   0  0  0  0  0  0  0  0  0  0  0  0
   -3.2013    1.3482    8.3119 H   0  0  0  0  0  0  0  0  0  0  0  0
    1.3423    2.2518    7.6561 O   0  0  0  0  0  0  0  0  0  0  0  0
    2.7997    2.4800    5.7789 C   0  0  0  0  0  0  0  0  0  0  0  0
   -5.8180   -0.2913    4.8556 O   0  0  0  0  0  0  0  0  0  0  0  0
   -5.4383   -1.2721    2.7078 C   0  0  0  0  0  0  0  0  0  0  0  0
    4.0649    2.1022    6.5061 C   0  0  0  0  0  0  0  0  0  0  0  0
    2.8459    2.4843    4.6846 H   0  0  0  0  0  0  0  0  0  0  0  0
    3.6367    3.5497    6.4904 C   0  0  0  0  0  0  0  0  0  0  0  0
   -6.7973   -0.9810    2.1214 C   0  0  0  0  0  0  0  0  0  0  0  0
   -4.6578   -1.5780    2.0016 H   0  0  0  0  0  0  0  0  0  0  0  0
   -6.6036   -2.2478    2.9205 C   0  0  0  0  0  0  0  0  0  0  0  0
    3.9557    1.5774    7.4582 H   0  0  0  0  0  0  0  0  0  0  0  0
    4.9262    1.8294    5.8925 H   0  0  0  0  0  0  0  0  0  0  0  0
    3.2055    3.9456    7.4132 H   0  0  0  0  0  0  0  0  0  0  0  0
    4.4024    4.5226    5.6507 C   0  0  0  0  0  0  0  0  0  0  0  0
   -7.3898   -0.2005    2.6072 H   0  0  0  0  0  0  0  0  0  0  0  0
   -6.8904   -1.0679    1.0354 H   0  0  0  0  0  0  0  0  0  0  0  0
   -7.0172   -2.2572    3.9338 H   0  0  0  0  0  0  0  0  0  0  0  0
   -6.5776   -3.5666    2.2237 C   0  0  0  0  0  0  0  0  0  0  0  0
    4.4934    5.7171    6.2591 O   0  0  0  0  0  0  0  0  0  0  0  0
    4.8967    4.2666    4.5693 O   0  0  0  0  0  0  0  0  0  0  0  0
   -7.1774   -4.5168    2.9745 O   0  0  0  0  0  0  0  0  0  0  0  0
   -6.0984   -3.7774    1.1277 O   0  0  0  0  0  0  0  0  0  0  0  0
    5.2242    6.7893    5.5926 C   0  0  0  0  0  0  0  0  0  0  0  0
   -7.2614   -5.8659    2.4351 C   0  0  0  0  0  0  0  0  0  0  0  0
    4.2326    7.6621    4.8110 C   0  0  0  0  0  0  0  0  0  0  0  0
    5.9853    7.5488    6.6781 C   0  0  0  0  0  0  0  0  0  0  0  0
    5.9235    6.3077    4.8859 H   0  0  0  0  0  0  0  0  0  0  0  0
   -7.2431   -6.8183    3.6318 C   0  0  0  0  0  0  0  0  0  0  0  0
   -8.5211   -5.9881    1.5704 C   0  0  0  0  0  0  0  0  0  0  0  0
   -6.3665   -6.0182    1.8022 H   0  0  0  0  0  0  0  0  0  0  0  0
    3.7201    7.0649    4.0391 H   0  0  0  0  0  0  0  0  0  0  0  0
    3.4813    8.0893    5.4885 H   0  0  0  0  0  0  0  0  0  0  0  0
    4.7667    8.4867    4.3190 H   0  0  0  0  0  0  0  0  0  0  0  0
    6.6685    6.8794    7.2165 H   0  0  0  0  0  0  0  0  0  0  0  0
    6.5807    8.3585    6.2353 H   0  0  0  0  0  0  0  0  0  0  0  0
    5.2944    7.9886    7.4086 H   0  0  0  0  0  0  0  0  0  0  0  0
   -6.3267   -6.6788    4.2198 H   0  0  0  0  0  0  0  0  0  0  0  0
   -8.1102   -6.6407    4.2856 H   0  0  0  0  0  0  0  0  0  0  0  0
   -7.2861   -7.8615    3.2899 H   0  0  0  0  0  0  0  0  0  0  0  0
   -8.4758   -5.2827    0.7295 H   0  0  0  0  0  0  0  0  0  0  0  0
   -8.6101   -7.0064    1.1670 H   0  0  0  0  0  0  0  0  0  0  0  0
   -9.4232   -5.7788    2.1653 H   0  0  0  0  0  0  0  0  0  0  0  0
   -0.6756   -1.4220   -4.6035 C   0  0  0  0  0  0  0  0  0  0  0  0
    0.2790   -1.2044   -5.6337 C   0  0  0  0  0  0  0  0  0  0  0  0
   -1.8747   -2.1252   -4.9035 C   0  0  0  0  0  0  0  0  0  0  0  0
    0.0704   -1.7370   -6.9216 C   0  0  0  0  0  0  0  0  0  0  0  0
    1.4166   -0.4203   -5.3166 N   0  0  0  0  0  0  0  0  0  0  0  0
   -2.0715   -2.6619   -6.1935 C   0  0  0  0  0  0  0  0  0  0  0  0
   -2.8563   -2.2179   -3.8891 N   0  0  0  0  0  0  0  0  0  0  0  0
    0.8216   -1.5636   -7.6975 H   0  0  0  0  0  0  0  0  0  0  0  0
   -1.0955   -2.4672   -7.1755 C   0  0  0  0  0  0  0  0  0  0  0  0
    2.3544    0.1279   -6.1656 C   0  0  0  0  0  0  0  0  0  0  0  0
    1.4366   -0.0945   -4.3488 H   0  0  0  0  0  0  0  0  0  0  0  0
   -2.9885   -3.2211   -6.3978 H   0  0  0  0  0  0  0  0  0  0  0  0
   -4.0812   -2.8528   -3.9317 C   0  0  0  0  0  0  0  0  0  0  0  0
   -2.6430   -1.7064   -3.0285 H   0  0  0  0  0  0  0  0  0  0  0  0
   -1.2536   -2.8889   -8.1767 H   0  0  0  0  0  0  0  0  0  0  0  0
    2.4561   -0.1250   -7.3603 O   0  0  0  0  0  0  0  0  0  0  0  0
    3.2543    1.1401   -5.4964 C   0  0  0  0  0  0  0  0  0  0  0  0
   -4.4591   -3.5719   -4.8513 O   0  0  0  0  0  0  0  0  0  0  0  0
   -4.9562   -2.5697   -2.7347 C   0  0  0  0  0  0  0  0  0  0  0  0
    3.5562    2.3964   -6.2809 C   0  0  0  0  0  0  0  0  0  0  0  0
    3.1953    1.2431   -4.4105 H   0  0  0  0  0  0  0  0  0  0  0  0
    4.6366    1.3577   -6.1059 C   0  0  0  0  0  0  0  0  0  0  0  0
   -5.8475   -3.6707   -2.2204 C   0  0  0  0  0  0  0  0  0  0  0  0
   -4.5983   -1.8472   -1.9918 H   0  0  0  0  0  0  0  0  0  0  0  0
   -6.4635   -2.5569   -3.0318 C   0  0  0  0  0  0  0  0  0  0  0  0
    3.1145    2.4786   -7.2765 H   0  0  0  0  0  0  0  0  0  0  0  0
    3.6591    3.3291   -5.7189 H   0  0  0  0  0  0  0  0  0  0  0  0
    4.8806    0.7427   -6.9741 H   0  0  0  0  0  0  0  0  0  0  0  0
    5.7615    1.6728   -5.1718 C   0  0  0  0  0  0  0  0  0  0  0  0
   -5.7772   -4.6378   -2.7253 H   0  0  0  0  0  0  0  0  0  0  0  0
   -6.0253   -3.6857   -1.1418 H   0  0  0  0  0  0  0  0  0  0  0  0
   -6.7335   -2.7909   -4.0662 H   0  0  0  0  0  0  0  0  0  0  0  0
   -7.3112   -1.5253   -2.3642 C   0  0  0  0  0  0  0  0  0  0  0  0
    6.9311    1.2253   -5.6556 O   0  0  0  0  0  0  0  0  0  0  0  0
    5.6386    2.2745   -4.1197 O   0  0  0  0  0  0  0  0  0  0  0  0
   -8.3129   -1.1262   -3.1773 O   0  0  0  0  0  0  0  0  0  0  0  0
   -7.1461   -1.0976   -1.2394 O   0  0  0  0  0  0  0  0  0  0  0  0
    8.1453    1.4673   -4.8857 C   0  0  0  0  0  0  0  0  0  0  0  0
   -9.2427   -0.1237   -2.6775 C   0  0  0  0  0  0  0  0  0  0  0  0
    9.0617    0.2648   -5.1180 C   0  0  0  0  0  0  0  0  0  0  0  0
    8.7547    2.8027   -5.3220 C   0  0  0  0  0  0  0  0  0  0  0  0
    7.8446    1.5292   -3.8224 H   0  0  0  0  0  0  0  0  0  0  0  0
   -8.6861    1.2775   -2.9606 C   0  0  0  0  0  0  0  0  0  0  0  0
  -10.5868   -0.3989   -3.3507 C   0  0  0  0  0  0  0  0  0  0  0  0
   -9.3157   -0.2696   -1.5843 H   0  0  0  0  0  0  0  0  0  0  0  0
    8.5622   -0.6619   -4.8061 H   0  0  0  0  0  0  0  0  0  0  0  0
    9.3308    0.1794   -6.1819 H   0  0  0  0  0  0  0  0  0  0  0  0
    9.9907    0.3790   -4.5430 H   0  0  0  0  0  0  0  0  0  0  0  0
    8.0534    3.6252   -5.1318 H   0  0  0  0  0  0  0  0  0  0  0  0
    9.6795    3.0020   -4.7633 H   0  0  0  0  0  0  0  0  0  0  0  0
    9.0036    2.7851   -6.3942 H   0  0  0  0  0  0  0  0  0  0  0  0
   -7.7227    1.4181   -2.4442 H   0  0  0  0  0  0  0  0  0  0  0  0
   -8.5384    1.4225   -4.0397 H   0  0  0  0  0  0  0  0  0  0  0  0
   -9.3885    2.0427   -2.6020 H   0  0  0  0  0  0  0  0  0  0  0  0
  -10.9325   -1.4183   -3.1286 H   0  0  0  0  0  0  0  0  0  0  0  0
  -11.3481    0.3070   -2.9922 H   0  0  0  0  0  0  0  0  0  0  0  0
  -10.5086   -0.2930   -4.4407 H   0  0  0  0  0  0  0  0  0  0  0  0
    4.3297   -6.0202    2.4551 H   0  0  0  0  0  0  0  0  0  0  0  0
    0.4931   -7.8544    1.6099 H   0  0  0  0  0  0  0  0  0  0  0  0
    1.0709    7.2696   -2.1888 H   0  0  0  0  0  0  0  0  0  0  0  0
   -3.2219    7.2790   -1.5772 H   0  0  0  0  0  0  0  0  0  0  0  0
    3.4993   -3.5202    1.8038 O   0  0  0  0  0  0  0  0  0  0  0  0
   -0.6846   -5.5172    0.8847 O   0  0  0  0  0  0  0  0  0  0  0  0
    1.3579    4.6686   -1.4401 O   0  0  0  0  0  0  0  0  0  0  0  0
   -3.3133    4.6855   -0.7762 O   0  0  0  0  0  0  0  0  0  0  0  0
    4.8372   -3.5543    2.1968 C   0  0  0  0  0  0  0  0  0  0  0  0
    5.8385   -3.8245    1.2539 C   0  0  0  0  0  0  0  0  0  0  0  0
    5.1682   -3.2384    3.5213 C   0  0  0  0  0  0  0  0  0  0  0  0
    7.1823   -3.7850    1.6482 C   0  0  0  0  0  0  0  0  0  0  0  0
    5.5550   -4.0579    0.2224 H   0  0  0  0  0  0  0  0  0  0  0  0
    6.5156   -3.2002    3.9035 C   0  0  0  0  0  0  0  0  0  0  0  0
    4.3633   -3.0215    4.2312 H   0  0  0  0  0  0  0  0  0  0  0  0
    7.5243   -3.4750    2.9709 C   0  0  0  0  0  0  0  0  0  0  0  0
    7.9688   -3.9950    0.9144 H   0  0  0  0  0  0  0  0  0  0  0  0
    6.7802   -2.9532    4.9378 H   0  0  0  0  0  0  0  0  0  0  0  0
    8.5793   -3.4455    3.2746 H   0  0  0  0  0  0  0  0  0  0  0  0
   -1.6518   -6.5033    1.0499 C   0  0  0  0  0  0  0  0  0  0  0  0
   -2.0250   -6.9572    2.3232 C   0  0  0  0  0  0  0  0  0  0  0  0
   -2.3069   -6.9756   -0.0957 C   0  0  0  0  0  0  0  0  0  0  0  0
   -3.0470   -7.9071    2.4415 C   0  0  0  0  0  0  0  0  0  0  0  0
   -1.5160   -6.5603    3.2081 H   0  0  0  0  0  0  0  0  0  0  0  0
   -3.3333   -7.9190    0.0371 C   0  0  0  0  0  0  0  0  0  0  0  0
   -2.0047   -6.5873   -1.0737 H   0  0  0  0  0  0  0  0  0  0  0  0
   -3.7020   -8.3927    1.3025 C   0  0  0  0  0  0  0  0  0  0  0  0
   -3.3386   -8.2671    3.4343 H   0  0  0  0  0  0  0  0  0  0  0  0
   -3.8476   -8.2884   -0.8568 H   0  0  0  0  0  0  0  0  0  0  0  0
   -4.5017   -9.1385    1.4022 H   0  0  0  0  0  0  0  0  0  0  0  0
    2.6297    5.2139   -1.3425 C   0  0  0  0  0  0  0  0  0  0  0  0
    2.9373    6.2706   -0.4736 C   0  0  0  0  0  0  0  0  0  0  0  0
    3.6458    4.5913   -2.0862 C   0  0  0  0  0  0  0  0  0  0  0  0
    4.2628    6.7131   -0.3728 C   0  0  0  0  0  0  0  0  0  0  0  0
    2.1455    6.7381    0.1218 H   0  0  0  0  0  0  0  0  0  0  0  0
    4.9646    5.0357   -1.9696 C   0  0  0  0  0  0  0  0  0  0  0  0
    3.3957    3.7594   -2.7387 H   0  0  0  0  0  0  0  0  0  0  0  0
    5.2797    6.1028   -1.1182 C   0  0  0  0  0  0  0  0  0  0  0  0
    4.5026    7.5426    0.3045 H   0  0  0  0  0  0  0  0  0  0  0  0
    5.7406    4.5286   -2.5554 H   0  0  0  0  0  0  0  0  0  0  0  0
    6.3145    6.4578   -1.0299 H   0  0  0  0  0  0  0  0  0  0  0  0
   -4.5999    5.0807   -1.1228 C   0  0  0  0  0  0  0  0  0  0  0  0
   -4.9736    5.2974   -2.4571 C   0  0  0  0  0  0  0  0  0  0  0  0
   -5.5492    5.1708   -0.0945 C   0  0  0  0  0  0  0  0  0  0  0  0
   -6.3023    5.6251   -2.7538 C   0  0  0  0  0  0  0  0  0  0  0  0
   -4.2255    5.2015   -3.2511 H   0  0  0  0  0  0  0  0  0  0  0  0
   -6.8761    5.4917   -0.4060 C   0  0  0  0  0  0  0  0  0  0  0  0
   -5.2305    4.9784    0.9349 H   0  0  0  0  0  0  0  0  0  0  0  0
   -7.2565    5.7260   -1.7334 C   0  0  0  0  0  0  0  0  0  0  0  0
   -6.5973    5.7948   -3.7951 H   0  0  0  0  0  0  0  0  0  0  0  0
   -7.6191    5.5608    0.3959 H   0  0  0  0  0  0  0  0  0  0  0  0
   -8.2970    5.9819   -1.9736 H   0  0  0  0  0  0  0  0  0  0  0  0
    1.3429    0.4744    0.0899 N   0  0  0  0  0  0  0  0  0  0  0  0
    2.4824    1.0359    0.3554 C   0  0  0  0  0  0  0  0  0  0  0  0
    1.3562    4.3497   -4.1261 C   0  0  0  0  0  0  0  0  0  0  0  0
    1.8887    2.9253   -3.8851 C   0  0  0  0  0  0  0  0  0  0  0  0
    1.9086    2.1369   -2.5440 C   0  0  0  0  0  0  0  0  0  0  0  0
    3.2148    1.4302   -2.0899 C   0  0  0  0  0  0  0  0  0  0  0  0
    3.4344    1.5222   -0.6038 C   0  0  0  0  0  0  0  0  0  0  0  0
    4.6136    2.0736   -0.1412 C   0  0  0  0  0  0  0  0  0  0  0  0
    4.9249    2.1582    1.2063 C   0  0  0  0  0  0  0  0  0  0  0  0
    4.0184    1.6783    2.1443 C   0  0  0  0  0  0  0  0  0  0  0  0
    2.8243    1.1447    1.7410 C   0  0  0  0  0  0  0  0  0  0  0  0
    1.2287    4.4494   -5.2046 H   0  0  0  0  0  0  0  0  0  0  0  0
    2.0648    5.1135   -3.8195 H   0  0  0  0  0  0  0  0  0  0  0  0
    0.4074    4.5736   -3.6675 H   0  0  0  0  0  0  0  0  0  0  0  0
    2.9146    3.0165   -4.2010 H   0  0  0  0  0  0  0  0  0  0  0  0
    1.3517    2.3132   -4.6083 H   0  0  0  0  0  0  0  0  0  0  0  0
    1.2110    1.3249   -2.6429 H   0  0  0  0  0  0  0  0  0  0  0  0
    1.5802    2.7511   -1.7188 H   0  0  0  0  0  0  0  0  0  0  0  0
    4.1086    1.8319   -2.5684 H   0  0  0  0  0  0  0  0  0  0  0  0
    3.1525    0.3650   -2.3430 H   0  0  0  0  0  0  0  0  0  0  0  0
    5.3235    2.4440   -0.8653 H   0  0  0  0  0  0  0  0  0  0  0  0
    5.8578    2.5917    1.5275 H   0  0  0  0  0  0  0  0  0  0  0  0
    4.2644    1.7341    3.1934 H   0  0  0  0  0  0  0  0  0  0  0  0
    2.1044    0.7524    2.4434 H   0  0  0  0  0  0  0  0  0  0  0  0
  1  4  4  0  0  0  0
  3  4  4  0  0  0  0
  4  5  1  0  0  0  0
  5  6  1  0  0  0  0
  5  7  2  0  0  0  0
  7  8  1  0  0  0  0
  1  9  4  0  0  0  0
  7  9  1  0  0  0  0
  9 10  4  0  0  0  0
  2 11  4  0  0  0  0
 10 11  4  0  0  0  0
 11 12  1  0  0  0  0
 12 13  1  0  0  0  0
 12 14  2  0  0  0  0
 14 15  1  0  0  0  0
  2 16  4  0  0  0  0
 14 16  1  0  0  0  0
 10 17  1  0  0  0  0
 17 18  4  0  0  0  0
 18 19  4  0  0  0  0
 19 20  4  0  0  0  0
 20 21  1  0  0  0  0
 20 22  4  0  0  0  0
 17 23  4  0  0  0  0
 22 23  4  0  0  0  0
 16 26  4  0  0  0  0
 24 27  4  0  0  0  0
 26 27  4  0  0  0  0
 27 28  1  0  0  0  0
 28 29  1  0  0  0  0
 28 30  2  0  0  0  0
 30 31  1  0  0  0  0
 24 32  4  0  0  0  0
 30 32  1  0  0  0  0
 32 33  4  0  0  0  0
 25 34  4  0  0  0  0
 33 34  4  0  0  0  0
 34 35  1  0  0  0  0
 35 36  1  0  0  0  0
 35 37  2  0  0  0  0
 37 38  1  0  0  0  0
  3 39  4  0  0  0  0
 25 39  4  0  0  0  0
 37 39  1  0  0  0  0
 33 40  1  0  0  0  0
 40 41  4  0  0  0  0
 41 42  4  0  0  0  0
 42 43  4  0  0  0  0
 43 44  1  0  0  0  0
 43 45  4  0  0  0  0
 40 46  4  0  0  0  0
 45 46  4  0  0  0  0
  1 47  1  0  0  0  0
  2 47  1  0  0  0  0
 24 47  1  0  0  0  0
 25 47  1  0  0  0  0
 47 48  1  0  0  0  0
 26 49  1  0  0  0  0
 49 50  4  0  0  0  0
 49 51  4  0  0  0  0
 50 52  4  0  0  0  0
 50 53  1  0  0  0  0
 51 54  4  0  0  0  0
 51 55  1  0  0  0  0
 52 56  1  0  0  0  0
 52 57  4  0  0  0  0
 54 57  4  0  0  0  0
 53 58  4  0  0  0  0
 53 59  1  0  0  0  0
 54 60  1  0  0  0  0
 55 61  4  0  0  0  0
 55 62  1  0  0  0  0
 57 63  1  0  0  0  0
 58 64  2  0  0  0  0
 58 65  1  0  0  0  0
 61 66  2  0  0  0  0
 61 67  1  0  0  0  0
 65 68  1  0  0  0  0
 65 69  1  0  0  0  0
 65 70  1  0  0  0  0
 68 70  1  0  0  0  0
 67 71  1  0  0  0  0
 67 72  1  0  0  0  0
 67 73  1  0  0  0  0
 71 73  1  0  0  0  0
 68 74  1  0  0  0  0
 68 75  1  0  0  0  0
 70 76  1  0  0  0  0
 70 77  1  0  0  0  0
 71 78  1  0  0  0  0
 71 79  1  0  0  0  0
 73 80  1  0  0  0  0
 73 81  1  0  0  0  0
 77 82  1  0  0  0  0
 77 83  2  0  0  0  0
 81 84  1  0  0  0  0
 81 85  2  0  0  0  0
 82 86  1  0  0  0  0
 84 87  1  0  0  0  0
 86 88  1  0  0  0  0
 86 89  1  0  0  0  0
 86 90  1  0  0  0  0
 87 91  1  0  0  0  0
 87 92  1  0  0  0  0
 87 93  1  0  0  0  0
 88 94  1  0  0  0  0
 88 95  1  0  0  0  0
 88 96  1  0  0  0  0
 89 97  1  0  0  0  0
 89 98  1  0  0  0  0
 89 99  1  0  0  0  0
 91100  1  0  0  0  0
 91101  1  0  0  0  0
 91102  1  0  0  0  0
 92103  1  0  0  0  0
 92104  1  0  0  0  0
 92105  1  0  0  0  0
  3106  1  0  0  0  0
106107  4  0  0  0  0
106108  4  0  0  0  0
107109  4  0  0  0  0
107110  1  0  0  0  0
108111  4  0  0  0  0
108112  1  0  0  0  0
109113  1  0  0  0  0
109114  4  0  0  0  0
111114  4  0  0  0  0
110115  4  0  0  0  0
110116  1  0  0  0  0
111117  1  0  0  0  0
112118  4  0  0  0  0
112119  1  0  0  0  0
114120  1  0  0  0  0
115121  2  0  0  0  0
115122  1  0  0  0  0
118123  2  0  0  0  0
118124  1  0  0  0  0
122125  1  0  0  0  0
122126  1  0  0  0  0
122127  1  0  0  0  0
125127  1  0  0  0  0
124128  1  0  0  0  0
124129  1  0  0  0  0
124130  1  0  0  0  0
128130  1  0  0  0  0
125131  1  0  0  0  0
125132  1  0  0  0  0
127133  1  0  0  0  0
127134  1  0  0  0  0
128135  1  0  0  0  0
128136  1  0  0  0  0
130137  1  0  0  0  0
130138  1  0  0  0  0
134139  1  0  0  0  0
134140  2  0  0  0  0
138141  1  0  0  0  0
138142  2  0  0  0  0
139143  1  0  0  0  0
141144  1  0  0  0  0
143145  1  0  0  0  0
143146  1  0  0  0  0
143147  1  0  0  0  0
144148  1  0  0  0  0
144149  1  0  0  0  0
144150  1  0  0  0  0
145151  1  0  0  0  0
145152  1  0  0  0  0
145153  1  0  0  0  0
146154  1  0  0  0  0
146155  1  0  0  0  0
146156  1  0  0  0  0
148157  1  0  0  0  0
148158  1  0  0  0  0
148159  1  0  0  0  0
149160  1  0  0  0  0
149161  1  0  0  0  0
149162  1  0  0  0  0
 19163  1  0  0  0  0
 22164  1  0  0  0  0
 42165  1  0  0  0  0
 45166  1  0  0  0  0
 18167  1  0  0  0  0
 23168  1  0  0  0  0
 41169  1  0  0  0  0
 46170  1  0  0  0  0
167171  1  0  0  0  0
171172  4  0  0  0  0
171173  4  0  0  0  0
172174  4  0  0  0  0
172175  1  0  0  0  0
173176  4  0  0  0  0
173177  1  0  0  0  0
174178  4  0  0  0  0
176178  4  0  0  0  0
174179  1  0  0  0  0
176180  1  0  0  0  0
178181  1  0  0  0  0
168182  1  0  0  0  0
182183  4  0  0  0  0
182184  4  0  0  0  0
183185  4  0  0  0  0
183186  1  0  0  0  0
184187  4  0  0  0  0
184188  1  0  0  0  0
185189  4  0  0  0  0
187189  4  0  0  0  0
185190  1  0  0  0  0
187191  1  0  0  0  0
189192  1  0  0  0  0
169193  1  0  0  0  0
193194  4  0  0  0  0
193195  4  0  0  0  0
194196  4  0  0  0  0
194197  1  0  0  0  0
195198  4  0  0  0  0
195199  1  0  0  0  0
196200  4  0  0  0  0
198200  4  0  0  0  0
196201  1  0  0  0  0
198202  1  0  0  0  0
200203  1  0  0  0  0
170204  1  0  0  0  0
204205  4  0  0  0  0
204206  4  0  0  0  0
205207  4  0  0  0  0
205208  1  0  0  0  0
206209  4  0  0  0  0
206210  1  0  0  0  0
207211  4  0  0  0  0
209211  4  0  0  0  0
207212  1  0  0  0  0
209213  1  0  0  0  0
211214  1  0  0  0  0
 47215  2  0  0  0  0
215216  4  0  0  0  0
217218  1  0  0  0  0
218219  1  0  0  0  0
219220  1  0  0  0  0
216221  1  0  0  0  0
220221  1  0  0  0  0
221222  4  0  0  0  0
222223  4  0  0  0  0
223224  4  0  0  0  0
216225  1  0  0  0  0
224225  2  0  0  0  0
217226  1  0  0  0  0
217227  1  0  0  0  0
217228  1  0  0  0  0
218229  1  0  0  0  0
218230  1  0  0  0  0
219231  1  0  0  0  0
219232  1  0  0  0  0
220233  1  0  0  0  0
220234  1  0  0  0  0
222235  1  0  0  0  0
223236  1  0  0  0  0
224237  1  0  0  0  0
225238  1  0  0  0  0
M  END
