
     RDKit          3D

 34 35  0  0  0  0  0  0  0  0999 V2000
   -1.8351   -2.0926    1.5728 C   0  0  0  0  0  0  0  0  0  0  0  0
   -1.2889   -1.3663    0.3368 C   0  0  0  0  0  0  0  0  0  0  0  0
    0.1772   -0.9359    0.5584 C   0  0  0  0  0  0  0  0  0  0  0  0
    0.8082   -0.3510   -0.7139 C   0  0  0  0  0  0  0  0  0  0  0  0
    2.2516    0.0150   -0.4697 C   0  0  0  0  0  0  0  0  0  0  0  0
    2.5696    1.3082   -0.0188 C   0  0  0  0  0  0  0  0  0  0  0  0
    3.8964    1.6600    0.2438 C   0  0  0  0  0  0  0  0  0  0  0  0
    4.9167    0.7231    0.0693 C   0  0  0  0  0  0  0  0  0  0  0  0
    4.6126   -0.5699   -0.3634 C   0  0  0  0  0  0  0  0  0  0  0  0
    3.2863   -0.9318   -0.6287 C   0  0  0  0  0  0  0  0  0  0  0  0
    3.0007   -2.2628   -1.0534 N   0  0  0  0  0  1  0  0  0  0  0  0
   -2.1788   -0.1900   -0.0273 C   0  0  0  0  0  0  0  0  0  0  0  0
   -2.8301   -0.1613   -1.2740 C   0  0  0  0  0  0  0  0  0  0  0  0
   -3.6414    0.9221   -1.6245 C   0  0  0  0  0  0  0  0  0  0  0  0
   -3.8109    1.9870   -0.7368 C   0  0  0  0  0  0  0  0  0  0  0  0
   -3.1694    1.9709    0.5036 C   0  0  0  0  0  0  0  0  0  0  0  0
   -2.3571    0.8902    0.8594 C   0  0  0  0  0  0  0  0  0  0  0  0
   -1.2456   -3.0146    1.7644 H   0  0  0  0  0  0  0  0  0  0  0  0
   -2.8932   -2.3879    1.4056 H   0  0  0  0  0  0  0  0  0  0  0  0
   -1.7801   -1.4460    2.4741 H   0  0  0  0  0  0  0  0  0  0  0  0
   -1.2969   -2.1089   -0.4929 H   0  0  0  0  0  0  0  0  0  0  0  0
    0.7684   -1.8260    0.8688 H   0  0  0  0  0  0  0  0  0  0  0  0
    0.2395   -0.1907    1.3813 H   0  0  0  0  0  0  0  0  0  0  0  0
    0.2463    0.5537   -1.0333 H   0  0  0  0  0  0  0  0  0  0  0  0
    0.7339   -1.0847   -1.5455 H   0  0  0  0  0  0  0  0  0  0  0  0
    1.7889    2.0439    0.1311 H   0  0  0  0  0  0  0  0  0  0  0  0
    4.1330    2.6591    0.5863 H   0  0  0  0  0  0  0  0  0  0  0  0
    5.9435    0.9973    0.2745 H   0  0  0  0  0  0  0  0  0  0  0  0
    5.4091   -1.2928   -0.4885 H   0  0  0  0  0  0  0  0  0  0  0  0
   -2.7087   -0.9752   -1.9779 H   0  0  0  0  0  0  0  0  0  0  0  0
   -4.1381    0.9364   -2.5860 H   0  0  0  0  0  0  0  0  0  0  0  0
   -4.4390    2.8249   -1.0105 H   0  0  0  0  0  0  0  0  0  0  0  0
   -3.3008    2.7972    1.1903 H   0  0  0  0  0  0  0  0  0  0  0  0
   -1.8678    0.8993    1.8246 H   0  0  0  0  0  0  0  0  0  0  0  0
  1  2  1  0
  2  3  1  0
  3  4  1  0
  4  5  1  0
  5  6  2  0
  6  7  1  0
  7  8  2  0
  8  9  1  0
  9 10  2  0
 10 11  1  0
  2 12  1  0
 12 13  2  0
 13 14  1  0
 14 15  2  0
 15 16  1  0
 16 17  2  0
 10  5  1  0
 17 12  1  0
  1 18  1  0
  1 19  1  0
  1 20  1  0
  2 21  1  0
  3 22  1  0
  3 23  1  0
  4 24  1  0
  4 25  1  0
  6 26  1  0
  7 27  1  0
  8 28  1  0
  9 29  1  0
 13 30  1  0
 14 31  1  0
 15 32  1  0
 16 33  1  0
 17 34  1  0
M  RAD  1  11   3
M  END
$$$$
