
     RDKit          3D

 34 35  0  0  0  0  0  0  0  0999 V2000
   -0.3869   -0.9795    1.8819 C   0  0  0  0  0  0  0  0  0  0  0  0
   -1.1642   -1.2059    0.5735 C   0  0  0  0  0  0  0  0  0  0  0  0
   -0.2944   -1.8561   -0.5333 C   0  0  0  0  0  0  0  0  0  0  0  0
    0.6244   -0.9103   -1.3384 C   0  0  0  0  0  0  0  0  0  0  0  0
    1.8031   -0.3833   -0.5520 C   0  0  0  0  0  0  0  0  0  0  0  0
    1.8798    0.9893   -0.2529 C   0  0  0  0  0  0  0  0  0  0  0  0
    2.9539    1.4967    0.4822 C   0  0  0  0  0  0  0  0  0  0  0  0
    3.9727    0.6451    0.9115 C   0  0  0  0  0  0  0  0  0  0  0  0
    3.9266   -0.7143    0.5956 C   0  0  0  0  0  0  0  0  0  0  0  0
    2.8541   -1.2328   -0.1401 C   0  0  0  0  0  0  0  0  0  0  0  0
    2.8572   -2.6162   -0.4852 N   0  0  0  0  0  1  0  0  0  0  0  0
   -1.9348    0.0096    0.0751 C   0  0  0  0  0  0  0  0  0  0  0  0
   -1.5727    1.3313    0.4112 C   0  0  0  0  0  0  0  0  0  0  0  0
   -2.2902    2.4156   -0.1028 C   0  0  0  0  0  0  0  0  0  0  0  0
   -3.3725    2.1997   -0.9575 C   0  0  0  0  0  0  0  0  0  0  0  0
   -3.7401    0.8980   -1.3015 C   0  0  0  0  0  0  0  0  0  0  0  0
   -3.0261   -0.1900   -0.7916 C   0  0  0  0  0  0  0  0  0  0  0  0
    0.4615   -0.2825    1.7516 H   0  0  0  0  0  0  0  0  0  0  0  0
    0.0169   -1.9451    2.2542 H   0  0  0  0  0  0  0  0  0  0  0  0
   -1.0663   -0.5709    2.6602 H   0  0  0  0  0  0  0  0  0  0  0  0
   -1.9303   -1.9690    0.8411 H   0  0  0  0  0  0  0  0  0  0  0  0
    0.2961   -2.6892   -0.0980 H   0  0  0  0  0  0  0  0  0  0  0  0
   -0.9842   -2.3332   -1.2639 H   0  0  0  0  0  0  0  0  0  0  0  0
    0.0261   -0.0775   -1.7663 H   0  0  0  0  0  0  0  0  0  0  0  0
    1.0201   -1.4718   -2.2123 H   0  0  0  0  0  0  0  0  0  0  0  0
    1.1082    1.6700   -0.5881 H   0  0  0  0  0  0  0  0  0  0  0  0
    2.9980    2.5526    0.7159 H   0  0  0  0  0  0  0  0  0  0  0  0
    4.8049    1.0406    1.4794 H   0  0  0  0  0  0  0  0  0  0  0  0
    4.7305   -1.3648    0.9169 H   0  0  0  0  0  0  0  0  0  0  0  0
   -0.7411    1.5377    1.0686 H   0  0  0  0  0  0  0  0  0  0  0  0
   -2.0049    3.4257    0.1615 H   0  0  0  0  0  0  0  0  0  0  0  0
   -3.9254    3.0414   -1.3543 H   0  0  0  0  0  0  0  0  0  0  0  0
   -4.5776    0.7311   -1.9665 H   0  0  0  0  0  0  0  0  0  0  0  0
   -3.3225   -1.1922   -1.0760 H   0  0  0  0  0  0  0  0  0  0  0  0
  1  2  1  0
  2  3  1  0
  3  4  1  0
  4  5  1  0
  5  6  2  0
  6  7  1  0
  7  8  2  0
  8  9  1  0
  9 10  2  0
 10 11  1  0
  2 12  1  0
 12 13  2  0
 13 14  1  0
 14 15  2  0
 15 16  1  0
 16 17  2  0
 10  5  1  0
 17 12  1  0
  1 18  1  0
  1 19  1  0
  1 20  1  0
  2 21  1  0
  3 22  1  0
  3 23  1  0
  4 24  1  0
  4 25  1  0
  6 26  1  0
  7 27  1  0
  8 28  1  0
  9 29  1  0
 13 30  1  0
 14 31  1  0
 15 32  1  0
 16 33  1  0
 17 34  1  0
M  RAD  1  11   3
M  END
$$$$
