
     RDKit          3D

 34 35  0  0  0  0  0  0  0  0999 V2000
    0.1416    0.0030    2.0309 C   0  0  0  0  0  0  0  0  0  0  0  0
   -0.9155   -0.7451    1.2001 C   0  0  0  0  0  0  0  0  0  0  0  0
   -0.3037   -1.8756    0.3330 C   0  0  0  0  0  0  0  0  0  0  0  0
    0.3336   -1.4524   -1.0093 C   0  0  0  0  0  0  0  0  0  0  0  0
    1.6344   -0.6967   -0.8600 C   0  0  0  0  0  0  0  0  0  0  0  0
    1.6992    0.6555   -1.2431 C   0  0  0  0  0  0  0  0  0  0  0  0
    2.8875    1.3766   -1.1035 C   0  0  0  0  0  0  0  0  0  0  0  0
    4.0292    0.7534   -0.5979 C   0  0  0  0  0  0  0  0  0  0  0  0
    3.9890   -0.5964   -0.2425 C   0  0  0  0  0  0  0  0  0  0  0  0
    2.8029   -1.3278   -0.3780 C   0  0  0  0  0  0  0  0  0  0  0  0
    2.8048   -2.7151   -0.0489 N   0  0  0  0  0  1  0  0  0  0  0  0
   -1.8555    0.1561    0.4101 C   0  0  0  0  0  0  0  0  0  0  0  0
   -1.5023    1.4630    0.0123 C   0  0  0  0  0  0  0  0  0  0  0  0
   -2.3867    2.2372   -0.7446 C   0  0  0  0  0  0  0  0  0  0  0  0
   -3.6294    1.7218   -1.1168 C   0  0  0  0  0  0  0  0  0  0  0  0
   -3.9911    0.4294   -0.7334 C   0  0  0  0  0  0  0  0  0  0  0  0
   -3.1108   -0.3498    0.0225 C   0  0  0  0  0  0  0  0  0  0  0  0
    0.8896    0.5144    1.3973 H   0  0  0  0  0  0  0  0  0  0  0  0
   -0.3514    0.7587    2.6791 H   0  0  0  0  0  0  0  0  0  0  0  0
    0.6808   -0.7114    2.6890 H   0  0  0  0  0  0  0  0  0  0  0  0
   -1.5465   -1.2580    1.9615 H   0  0  0  0  0  0  0  0  0  0  0  0
   -1.1206   -2.5903    0.0900 H   0  0  0  0  0  0  0  0  0  0  0  0
    0.4238   -2.4545    0.9397 H   0  0  0  0  0  0  0  0  0  0  0  0
    0.5378   -2.3708   -1.6012 H   0  0  0  0  0  0  0  0  0  0  0  0
   -0.3995   -0.8700   -1.6075 H   0  0  0  0  0  0  0  0  0  0  0  0
    0.8300    1.1547   -1.6509 H   0  0  0  0  0  0  0  0  0  0  0  0
    2.9238    2.4193   -1.3915 H   0  0  0  0  0  0  0  0  0  0  0  0
    4.9492    1.3136   -0.4922 H   0  0  0  0  0  0  0  0  0  0  0  0
    4.8844   -1.0769    0.1317 H   0  0  0  0  0  0  0  0  0  0  0  0
   -0.5497    1.8954    0.2805 H   0  0  0  0  0  0  0  0  0  0  0  0
   -2.1067    3.2389   -1.0444 H   0  0  0  0  0  0  0  0  0  0  0  0
   -4.3116    2.3235   -1.7034 H   0  0  0  0  0  0  0  0  0  0  0  0
   -4.9536    0.0290   -1.0246 H   0  0  0  0  0  0  0  0  0  0  0  0
   -3.4069   -1.3528    0.3041 H   0  0  0  0  0  0  0  0  0  0  0  0
  1  2  1  0
  2  3  1  0
  3  4  1  0
  4  5  1  0
  5  6  2  0
  6  7  1  0
  7  8  2  0
  8  9  1  0
  9 10  2  0
 10 11  1  0
  2 12  1  0
 12 13  2  0
 13 14  1  0
 14 15  2  0
 15 16  1  0
 16 17  2  0
 10  5  1  0
 17 12  1  0
  1 18  1  0
  1 19  1  0
  1 20  1  0
  2 21  1  0
  3 22  1  0
  3 23  1  0
  4 24  1  0
  4 25  1  0
  6 26  1  0
  7 27  1  0
  8 28  1  0
  9 29  1  0
 13 30  1  0
 14 31  1  0
 15 32  1  0
 16 33  1  0
 17 34  1  0
M  RAD  1  11   3
M  END
$$$$
