
     RDKit          3D

 34 35  0  0  0  0  0  0  0  0999 V2000
   -1.6444   -0.8776   -2.5973 C   0  0  0  0  0  0  0  0  0  0  0  0
   -1.1766   -0.9788   -1.1398 C   0  0  0  0  0  0  0  0  0  0  0  0
    0.2569   -0.4266   -0.9855 C   0  0  0  0  0  0  0  0  0  0  0  0
    0.8191   -0.6593    0.4248 C   0  0  0  0  0  0  0  0  0  0  0  0
    2.2352   -0.1473    0.5220 C   0  0  0  0  0  0  0  0  0  0  0  0
    2.4637    1.1810    0.9221 C   0  0  0  0  0  0  0  0  0  0  0  0
    3.7649    1.6862    0.9894 C   0  0  0  0  0  0  0  0  0  0  0  0
    4.8492    0.8753    0.6486 C   0  0  0  0  0  0  0  0  0  0  0  0
    4.6350   -0.4415    0.2346 C   0  0  0  0  0  0  0  0  0  0  0  0
    3.3349   -0.9565    0.1637 C   0  0  0  0  0  0  0  0  0  0  0  0
    3.1421   -2.2987   -0.2777 N   0  0  0  0  0  1  0  0  0  0  0  0
   -2.1585   -0.2800   -0.2148 C   0  0  0  0  0  0  0  0  0  0  0  0
   -2.4012    1.1037   -0.3213 C   0  0  0  0  0  0  0  0  0  0  0  0
   -3.2984    1.7336    0.5462 C   0  0  0  0  0  0  0  0  0  0  0  0
   -3.9618    0.9932    1.5271 C   0  0  0  0  0  0  0  0  0  0  0  0
   -3.7291   -0.3791    1.6429 C   0  0  0  0  0  0  0  0  0  0  0  0
   -2.8328   -1.0143    0.7781 C   0  0  0  0  0  0  0  0  0  0  0  0
   -2.6802   -1.2680   -2.6939 H   0  0  0  0  0  0  0  0  0  0  0  0
   -1.6216    0.1743   -2.9531 H   0  0  0  0  0  0  0  0  0  0  0  0
   -0.9841   -1.4852   -3.2524 H   0  0  0  0  0  0  0  0  0  0  0  0
   -1.1440   -2.0646   -0.8950 H   0  0  0  0  0  0  0  0  0  0  0  0
    0.9187   -0.9391   -1.7186 H   0  0  0  0  0  0  0  0  0  0  0  0
    0.2782    0.6602   -1.2201 H   0  0  0  0  0  0  0  0  0  0  0  0
    0.1853   -0.1386    1.1754 H   0  0  0  0  0  0  0  0  0  0  0  0
    0.7849   -1.7424    0.6723 H   0  0  0  0  0  0  0  0  0  0  0  0
    1.6329    1.8263    1.1804 H   0  0  0  0  0  0  0  0  0  0  0  0
    3.9322    2.7086    1.3028 H   0  0  0  0  0  0  0  0  0  0  0  0
    5.8561    1.2691    0.7002 H   0  0  0  0  0  0  0  0  0  0  0  0
    5.4809   -1.0612   -0.0355 H   0  0  0  0  0  0  0  0  0  0  0  0
   -1.8965    1.6968   -1.0727 H   0  0  0  0  0  0  0  0  0  0  0  0
   -3.4789    2.7971    0.4581 H   0  0  0  0  0  0  0  0  0  0  0  0
   -4.6557    1.4829    2.1980 H   0  0  0  0  0  0  0  0  0  0  0  0
   -4.2429   -0.9515    2.4043 H   0  0  0  0  0  0  0  0  0  0  0  0
   -2.6635   -2.0783    0.8867 H   0  0  0  0  0  0  0  0  0  0  0  0
  1  2  1  0
  2  3  1  0
  3  4  1  0
  4  5  1  0
  5  6  2  0
  6  7  1  0
  7  8  2  0
  8  9  1  0
  9 10  2  0
 10 11  1  0
  2 12  1  0
 12 13  2  0
 13 14  1  0
 14 15  2  0
 15 16  1  0
 16 17  2  0
 10  5  1  0
 17 12  1  0
  1 18  1  0
  1 19  1  0
  1 20  1  0
  2 21  1  0
  3 22  1  0
  3 23  1  0
  4 24  1  0
  4 25  1  0
  6 26  1  0
  7 27  1  0
  8 28  1  0
  9 29  1  0
 13 30  1  0
 14 31  1  0
 15 32  1  0
 16 33  1  0
 17 34  1  0
M  RAD  1  11   3
M  END
$$$$
