
     RDKit          3D

 34 35  0  0  0  0  0  0  0  0999 V2000
   -1.7109   -2.5269   -0.9674 C   0  0  0  0  0  0  0  0  0  0  0  0
   -1.2442   -1.4466    0.0168 C   0  0  0  0  0  0  0  0  0  0  0  0
    0.2235   -1.0536   -0.2576 C   0  0  0  0  0  0  0  0  0  0  0  0
    0.7756   -0.0944    0.8074 C   0  0  0  0  0  0  0  0  0  0  0  0
    2.2230    0.2296    0.5297 C   0  0  0  0  0  0  0  0  0  0  0  0
    2.5408    1.3387   -0.2739 C   0  0  0  0  0  0  0  0  0  0  0  0
    3.8729    1.6398   -0.5700 C   0  0  0  0  0  0  0  0  0  0  0  0
    4.8995    0.8323   -0.0765 C   0  0  0  0  0  0  0  0  0  0  0  0
    4.5966   -0.2815    0.7103 C   0  0  0  0  0  0  0  0  0  0  0  0
    3.2649   -0.5914    1.0120 C   0  0  0  0  0  0  0  0  0  0  0  0
    2.9815   -1.7433    1.8035 N   0  0  0  0  0  1  0  0  0  0  0  0
   -2.1733   -0.2455   -0.0295 C   0  0  0  0  0  0  0  0  0  0  0  0
   -2.3242    0.5137   -1.2067 C   0  0  0  0  0  0  0  0  0  0  0  0
   -3.1738    1.6237   -1.2287 C   0  0  0  0  0  0  0  0  0  0  0  0
   -3.8802    1.9885   -0.0805 C   0  0  0  0  0  0  0  0  0  0  0  0
   -3.7384    1.2440    1.0926 C   0  0  0  0  0  0  0  0  0  0  0  0
   -2.8901    0.1329    1.1205 C   0  0  0  0  0  0  0  0  0  0  0  0
   -1.0954   -3.4438   -0.8467 H   0  0  0  0  0  0  0  0  0  0  0  0
   -2.7708   -2.7938   -0.7670 H   0  0  0  0  0  0  0  0  0  0  0  0
   -1.6201   -2.1778   -2.0179 H   0  0  0  0  0  0  0  0  0  0  0  0
   -1.2824   -1.9070    1.0299 H   0  0  0  0  0  0  0  0  0  0  0  0
    0.8464   -1.9756   -0.2595 H   0  0  0  0  0  0  0  0  0  0  0  0
    0.3156   -0.5869   -1.2627 H   0  0  0  0  0  0  0  0  0  0  0  0
    0.6708   -0.5480    1.8167 H   0  0  0  0  0  0  0  0  0  0  0  0
    0.1812    0.8452    0.8148 H   0  0  0  0  0  0  0  0  0  0  0  0
    1.7558    1.9695   -0.6727 H   0  0  0  0  0  0  0  0  0  0  0  0
    4.1091    2.4981   -1.1856 H   0  0  0  0  0  0  0  0  0  0  0  0
    5.9305    1.0667   -0.3081 H   0  0  0  0  0  0  0  0  0  0  0  0
    5.3983   -0.9070    1.0824 H   0  0  0  0  0  0  0  0  0  0  0  0
   -1.7848    0.2501   -2.1070 H   0  0  0  0  0  0  0  0  0  0  0  0
   -3.2837    2.2021   -2.1369 H   0  0  0  0  0  0  0  0  0  0  0  0
   -4.5370    2.8486   -0.0996 H   0  0  0  0  0  0  0  0  0  0  0  0
   -4.2855    1.5285    1.9821 H   0  0  0  0  0  0  0  0  0  0  0  0
   -2.7913   -0.4288    2.0409 H   0  0  0  0  0  0  0  0  0  0  0  0
  1  2  1  0
  2  3  1  0
  3  4  1  0
  4  5  1  0
  5  6  2  0
  6  7  1  0
  7  8  2  0
  8  9  1  0
  9 10  2  0
 10 11  1  0
  2 12  1  0
 12 13  2  0
 13 14  1  0
 14 15  2  0
 15 16  1  0
 16 17  2  0
 10  5  1  0
 17 12  1  0
  1 18  1  0
  1 19  1  0
  1 20  1  0
  2 21  1  0
  3 22  1  0
  3 23  1  0
  4 24  1  0
  4 25  1  0
  6 26  1  0
  7 27  1  0
  8 28  1  0
  9 29  1  0
 13 30  1  0
 14 31  1  0
 15 32  1  0
 16 33  1  0
 17 34  1  0
M  RAD  1  11   3
M  END
$$$$
