
     RDKit          3D

 34 35  0  0  0  0  0  0  0  0999 V2000
   -1.4689   -2.7858   -0.5492 C   0  0  0  0  0  0  0  0  0  0  0  0
   -0.9683   -1.6155    0.3070 C   0  0  0  0  0  0  0  0  0  0  0  0
    0.3238   -1.0155   -0.2881 C   0  0  0  0  0  0  0  0  0  0  0  0
    0.9432    0.0508    0.6276 C   0  0  0  0  0  0  0  0  0  0  0  0
    2.2257    0.5795    0.0337 C   0  0  0  0  0  0  0  0  0  0  0  0
    2.1832    1.6963   -0.8193 C   0  0  0  0  0  0  0  0  0  0  0  0
    3.3541    2.1844   -1.4053 C   0  0  0  0  0  0  0  0  0  0  0  0
    4.5763    1.5575   -1.1548 C   0  0  0  0  0  0  0  0  0  0  0  0
    4.6301    0.4376   -0.3216 C   0  0  0  0  0  0  0  0  0  0  0  0
    3.4622   -0.0589    0.2699 C   0  0  0  0  0  0  0  0  0  0  0  0
    3.5418   -1.2133    1.1033 N   0  0  0  0  0  1  0  0  0  0  0  0
   -2.0584   -0.5701    0.4711 C   0  0  0  0  0  0  0  0  0  0  0  0
   -2.5810    0.1182   -0.6417 C   0  0  0  0  0  0  0  0  0  0  0  0
   -3.5750    1.0864   -0.4719 C   0  0  0  0  0  0  0  0  0  0  0  0
   -4.0576    1.3788    0.8056 C   0  0  0  0  0  0  0  0  0  0  0  0
   -3.5470    0.7036    1.9165 C   0  0  0  0  0  0  0  0  0  0  0  0
   -2.5527   -0.2657    1.7526 C   0  0  0  0  0  0  0  0  0  0  0  0
   -2.4041   -3.2023   -0.1172 H   0  0  0  0  0  0  0  0  0  0  0  0
   -0.7082   -3.5952   -0.5702 H   0  0  0  0  0  0  0  0  0  0  0  0
   -1.6675   -2.4623   -1.5929 H   0  0  0  0  0  0  0  0  0  0  0  0
   -0.7102   -2.0423    1.3025 H   0  0  0  0  0  0  0  0  0  0  0  0
    1.0654   -1.8328   -0.4304 H   0  0  0  0  0  0  0  0  0  0  0  0
    0.1184   -0.5740   -1.2878 H   0  0  0  0  0  0  0  0  0  0  0  0
    0.2276    0.8900    0.7689 H   0  0  0  0  0  0  0  0  0  0  0  0
    1.1353   -0.3796    1.6342 H   0  0  0  0  0  0  0  0  0  0  0  0
    1.2418    2.1882   -1.0318 H   0  0  0  0  0  0  0  0  0  0  0  0
    3.3132    3.0475   -2.0572 H   0  0  0  0  0  0  0  0  0  0  0  0
    5.4818    1.9364   -1.6109 H   0  0  0  0  0  0  0  0  0  0  0  0
    5.5809   -0.0474   -0.1389 H   0  0  0  0  0  0  0  0  0  0  0  0
   -2.2200   -0.0911   -1.6401 H   0  0  0  0  0  0  0  0  0  0  0  0
   -3.9708    1.6110   -1.3318 H   0  0  0  0  0  0  0  0  0  0  0  0
   -4.8268    2.1291    0.9349 H   0  0  0  0  0  0  0  0  0  0  0  0
   -3.9210    0.9321    2.9061 H   0  0  0  0  0  0  0  0  0  0  0  0
   -2.1675   -0.7751    2.6270 H   0  0  0  0  0  0  0  0  0  0  0  0
  1  2  1  0
  2  3  1  0
  3  4  1  0
  4  5  1  0
  5  6  2  0
  6  7  1  0
  7  8  2  0
  8  9  1  0
  9 10  2  0
 10 11  1  0
  2 12  1  0
 12 13  2  0
 13 14  1  0
 14 15  2  0
 15 16  1  0
 16 17  2  0
 10  5  1  0
 17 12  1  0
  1 18  1  0
  1 19  1  0
  1 20  1  0
  2 21  1  0
  3 22  1  0
  3 23  1  0
  4 24  1  0
  4 25  1  0
  6 26  1  0
  7 27  1  0
  8 28  1  0
  9 29  1  0
 13 30  1  0
 14 31  1  0
 15 32  1  0
 16 33  1  0
 17 34  1  0
M  RAD  1  11   3
M  END
$$$$
