
     RDKit          3D

 34 35  0  0  0  0  0  0  0  0999 V2000
   -1.4598   -2.8422   -0.1051 C   0  0  0  0  0  0  0  0  0  0  0  0
   -1.1057   -1.4749    0.4936 C   0  0  0  0  0  0  0  0  0  0  0  0
    0.3224   -1.0525    0.0866 C   0  0  0  0  0  0  0  0  0  0  0  0
    0.7717    0.2326    0.7978 C   0  0  0  0  0  0  0  0  0  0  0  0
    2.1861    0.5868    0.4090 C   0  0  0  0  0  0  0  0  0  0  0  0
    2.4093    1.4211   -0.7004 C   0  0  0  0  0  0  0  0  0  0  0  0
    3.7112    1.7375   -1.0976 C   0  0  0  0  0  0  0  0  0  0  0  0
    4.8023    1.2169   -0.3991 C   0  0  0  0  0  0  0  0  0  0  0  0
    4.5945    0.3743    0.6955 C   0  0  0  0  0  0  0  0  0  0  0  0
    3.2938    0.0513    1.1008 C   0  0  0  0  0  0  0  0  0  0  0  0
    3.1090   -0.8242    2.2112 N   0  0  0  0  0  1  0  0  0  0  0  0
   -2.1411   -0.4355    0.0989 C   0  0  0  0  0  0  0  0  0  0  0  0
   -2.9027    0.2095    1.0906 C   0  0  0  0  0  0  0  0  0  0  0  0
   -3.8494    1.1765    0.7394 C   0  0  0  0  0  0  0  0  0  0  0  0
   -4.0460    1.5104   -0.6024 C   0  0  0  0  0  0  0  0  0  0  0  0
   -3.2961    0.8779   -1.5964 C   0  0  0  0  0  0  0  0  0  0  0  0
   -2.3481   -0.0898   -1.2512 C   0  0  0  0  0  0  0  0  0  0  0  0
   -2.4927   -3.1306    0.1859 H   0  0  0  0  0  0  0  0  0  0  0  0
   -0.7638   -3.6182    0.2793 H   0  0  0  0  0  0  0  0  0  0  0  0
   -1.3898   -2.8244   -1.2134 H   0  0  0  0  0  0  0  0  0  0  0  0
   -1.1128   -1.6048    1.5995 H   0  0  0  0  0  0  0  0  0  0  0  0
    0.3824   -0.9091   -1.0144 H   0  0  0  0  0  0  0  0  0  0  0  0
    1.0277   -1.8700    0.3555 H   0  0  0  0  0  0  0  0  0  0  0  0
    0.0931    1.0711    0.5282 H   0  0  0  0  0  0  0  0  0  0  0  0
    0.6979    0.1018    1.8991 H   0  0  0  0  0  0  0  0  0  0  0  0
    1.5740    1.8254   -1.2591 H   0  0  0  0  0  0  0  0  0  0  0  0
    3.8741    2.3842   -1.9501 H   0  0  0  0  0  0  0  0  0  0  0  0
    5.8098    1.4622   -0.7093 H   0  0  0  0  0  0  0  0  0  0  0  0
    5.4463   -0.0316    1.2268 H   0  0  0  0  0  0  0  0  0  0  0  0
   -2.7628   -0.0323    2.1368 H   0  0  0  0  0  0  0  0  0  0  0  0
   -4.4304    1.6683    1.5089 H   0  0  0  0  0  0  0  0  0  0  0  0
   -4.7791    2.2597   -0.8718 H   0  0  0  0  0  0  0  0  0  0  0  0
   -3.4487    1.1382   -2.6358 H   0  0  0  0  0  0  0  0  0  0  0  0
   -1.7766   -0.5658   -2.0372 H   0  0  0  0  0  0  0  0  0  0  0  0
  1  2  1  0
  2  3  1  0
  3  4  1  0
  4  5  1  0
  5  6  2  0
  6  7  1  0
  7  8  2  0
  8  9  1  0
  9 10  2  0
 10 11  1  0
  2 12  1  0
 12 13  2  0
 13 14  1  0
 14 15  2  0
 15 16  1  0
 16 17  2  0
 10  5  1  0
 17 12  1  0
  1 18  1  0
  1 19  1  0
  1 20  1  0
  2 21  1  0
  3 22  1  0
  3 23  1  0
  4 24  1  0
  4 25  1  0
  6 26  1  0
  7 27  1  0
  8 28  1  0
  9 29  1  0
 13 30  1  0
 14 31  1  0
 15 32  1  0
 16 33  1  0
 17 34  1  0
M  RAD  1  11   3
M  END
$$$$
