
     RDKit          3D

 34 35  0  0  0  0  0  0  0  0999 V2000
    0.1806    1.1847   -0.7768 C   0  0  0  0  0  0  0  0  0  0  0  0
    0.6799   -0.0879   -0.0735 C   0  0  0  0  0  0  0  0  0  0  0  0
   -0.0876   -0.3628    1.2490 C   0  0  0  0  0  0  0  0  0  0  0  0
   -1.2913   -1.3092    1.0866 C   0  0  0  0  0  0  0  0  0  0  0  0
   -2.4010   -0.7154    0.2523 C   0  0  0  0  0  0  0  0  0  0  0  0
   -2.5718   -1.1374   -1.0787 C   0  0  0  0  0  0  0  0  0  0  0  0
   -3.5784   -0.5828   -1.8734 C   0  0  0  0  0  0  0  0  0  0  0  0
   -4.4249    0.3958   -1.3493 C   0  0  0  0  0  0  0  0  0  0  0  0
   -4.2684    0.8216   -0.0283 C   0  0  0  0  0  0  0  0  0  0  0  0
   -3.2627    0.2723    0.7760 C   0  0  0  0  0  0  0  0  0  0  0  0
   -3.1279    0.7205    2.1229 N   0  0  0  0  0  1  0  0  0  0  0  0
    2.1731    0.0264    0.1785 C   0  0  0  0  0  0  0  0  0  0  0  0
    3.0738   -0.8024   -0.5155 C   0  0  0  0  0  0  0  0  0  0  0  0
    4.4501   -0.6933   -0.2942 C   0  0  0  0  0  0  0  0  0  0  0  0
    4.9418    0.2438    0.6175 C   0  0  0  0  0  0  0  0  0  0  0  0
    4.0582    1.0752    1.3095 C   0  0  0  0  0  0  0  0  0  0  0  0
    2.6812    0.9708    1.0921 C   0  0  0  0  0  0  0  0  0  0  0  0
   -0.8849    1.0917   -1.0627 H   0  0  0  0  0  0  0  0  0  0  0  0
    0.2899    2.0729   -0.1189 H   0  0  0  0  0  0  0  0  0  0  0  0
    0.7645    1.3578   -1.7063 H   0  0  0  0  0  0  0  0  0  0  0  0
    0.5019   -0.9381   -0.7694 H   0  0  0  0  0  0  0  0  0  0  0  0
   -0.4101    0.5898    1.7226 H   0  0  0  0  0  0  0  0  0  0  0  0
    0.5963   -0.8543    1.9767 H   0  0  0  0  0  0  0  0  0  0  0  0
   -1.6913   -1.5544    2.0943 H   0  0  0  0  0  0  0  0  0  0  0  0
   -0.9461   -2.2730    0.6517 H   0  0  0  0  0  0  0  0  0  0  0  0
   -1.9194   -1.8894   -1.5048 H   0  0  0  0  0  0  0  0  0  0  0  0
   -3.7004   -0.9105   -2.8977 H   0  0  0  0  0  0  0  0  0  0  0  0
   -5.2035    0.8245   -1.9671 H   0  0  0  0  0  0  0  0  0  0  0  0
   -4.9305    1.5799    0.3708 H   0  0  0  0  0  0  0  0  0  0  0  0
    2.7132   -1.5331   -1.2286 H   0  0  0  0  0  0  0  0  0  0  0  0
    5.1362   -1.3355   -0.8312 H   0  0  0  0  0  0  0  0  0  0  0  0
    6.0076    0.3264    0.7869 H   0  0  0  0  0  0  0  0  0  0  0  0
    4.4404    1.8019    2.0147 H   0  0  0  0  0  0  0  0  0  0  0  0
    2.0113    1.6235    1.6373 H   0  0  0  0  0  0  0  0  0  0  0  0
  1  2  1  0
  2  3  1  0
  3  4  1  0
  4  5  1  0
  5  6  2  0
  6  7  1  0
  7  8  2  0
  8  9  1  0
  9 10  2  0
 10 11  1  0
  2 12  1  0
 12 13  2  0
 13 14  1  0
 14 15  2  0
 15 16  1  0
 16 17  2  0
 10  5  1  0
 17 12  1  0
  1 18  1  0
  1 19  1  0
  1 20  1  0
  2 21  1  0
  3 22  1  0
  3 23  1  0
  4 24  1  0
  4 25  1  0
  6 26  1  0
  7 27  1  0
  8 28  1  0
  9 29  1  0
 13 30  1  0
 14 31  1  0
 15 32  1  0
 16 33  1  0
 17 34  1  0
M  RAD  1  11   3
M  END
$$$$
