
     RDKit          3D

 34 35  0  0  0  0  0  0  0  0999 V2000
   -1.4811    1.7507   -2.3373 C   0  0  0  0  0  0  0  0  0  0  0  0
   -1.0886    0.4592   -1.6084 C   0  0  0  0  0  0  0  0  0  0  0  0
    0.3197    0.5868   -0.9888 C   0  0  0  0  0  0  0  0  0  0  0  0
    0.8125   -0.7394   -0.3911 C   0  0  0  0  0  0  0  0  0  0  0  0
    2.2076   -0.5853    0.1629 C   0  0  0  0  0  0  0  0  0  0  0  0
    2.3797   -0.2054    1.5056 C   0  0  0  0  0  0  0  0  0  0  0  0
    3.6618   -0.0264    2.0319 C   0  0  0  0  0  0  0  0  0  0  0  0
    4.7835   -0.2143    1.2220 C   0  0  0  0  0  0  0  0  0  0  0  0
    4.6261   -0.5767   -0.1179 C   0  0  0  0  0  0  0  0  0  0  0  0
    3.3455   -0.7581   -0.6543 C   0  0  0  0  0  0  0  0  0  0  0  0
    3.2116   -1.1119   -2.0292 N   0  0  0  0  0  1  0  0  0  0  0  0
   -2.1361    0.0930   -0.5707 C   0  0  0  0  0  0  0  0  0  0  0  0
   -2.8424   -1.1187   -0.6827 C   0  0  0  0  0  0  0  0  0  0  0  0
   -3.7996   -1.4715    0.2734 C   0  0  0  0  0  0  0  0  0  0  0  0
   -4.0617   -0.6212    1.3499 C   0  0  0  0  0  0  0  0  0  0  0  0
   -3.3670    0.5841    1.4729 C   0  0  0  0  0  0  0  0  0  0  0  0
   -2.4089    0.9421    0.5199 C   0  0  0  0  0  0  0  0  0  0  0  0
   -1.4671    2.6204   -1.6467 H   0  0  0  0  0  0  0  0  0  0  0  0
   -0.7714    1.9498   -3.1686 H   0  0  0  0  0  0  0  0  0  0  0  0
   -2.4998    1.6507   -2.7697 H   0  0  0  0  0  0  0  0  0  0  0  0
   -1.0406   -0.3375   -2.3848 H   0  0  0  0  0  0  0  0  0  0  0  0
    1.0326    0.9030   -1.7826 H   0  0  0  0  0  0  0  0  0  0  0  0
    0.3249    1.3739   -0.2033 H   0  0  0  0  0  0  0  0  0  0  0  0
    0.7936   -1.5350   -1.1672 H   0  0  0  0  0  0  0  0  0  0  0  0
    0.1265   -1.0667    0.4203 H   0  0  0  0  0  0  0  0  0  0  0  0
    1.5197   -0.0461    2.1447 H   0  0  0  0  0  0  0  0  0  0  0  0
    3.7855    0.2617    3.0678 H   0  0  0  0  0  0  0  0  0  0  0  0
    5.7756   -0.0739    1.6313 H   0  0  0  0  0  0  0  0  0  0  0  0
    5.5010   -0.7127   -0.7412 H   0  0  0  0  0  0  0  0  0  0  0  0
   -2.6513   -1.7935   -1.5077 H   0  0  0  0  0  0  0  0  0  0  0  0
   -4.3378   -2.4059    0.1799 H   0  0  0  0  0  0  0  0  0  0  0  0
   -4.8027   -0.8966    2.0892 H   0  0  0  0  0  0  0  0  0  0  0  0
   -3.5704    1.2418    2.3082 H   0  0  0  0  0  0  0  0  0  0  0  0
   -1.8809    1.8795    0.6358 H   0  0  0  0  0  0  0  0  0  0  0  0
  1  2  1  0
  2  3  1  0
  3  4  1  0
  4  5  1  0
  5  6  2  0
  6  7  1  0
  7  8  2  0
  8  9  1  0
  9 10  2  0
 10 11  1  0
  2 12  1  0
 12 13  2  0
 13 14  1  0
 14 15  2  0
 15 16  1  0
 16 17  2  0
 10  5  1  0
 17 12  1  0
  1 18  1  0
  1 19  1  0
  1 20  1  0
  2 21  1  0
  3 22  1  0
  3 23  1  0
  4 24  1  0
  4 25  1  0
  6 26  1  0
  7 27  1  0
  8 28  1  0
  9 29  1  0
 13 30  1  0
 14 31  1  0
 15 32  1  0
 16 33  1  0
 17 34  1  0
M  RAD  1  11   3
M  END
$$$$
