
     RDKit          3D

 34 35  0  0  0  0  0  0  0  0999 V2000
   -2.0798   -2.3625    0.5596 C   0  0  0  0  0  0  0  0  0  0  0  0
   -1.2781   -1.3834   -0.3075 C   0  0  0  0  0  0  0  0  0  0  0  0
    0.0723   -1.0418    0.3586 C   0  0  0  0  0  0  0  0  0  0  0  0
    0.9706   -0.1934   -0.5538 C   0  0  0  0  0  0  0  0  0  0  0  0
    2.2959    0.0807    0.1136 C   0  0  0  0  0  0  0  0  0  0  0  0
    2.4442    1.2307    0.9088 C   0  0  0  0  0  0  0  0  0  0  0  0
    3.6526    1.4889    1.5615 C   0  0  0  0  0  0  0  0  0  0  0  0
    4.7204    0.5981    1.4361 C   0  0  0  0  0  0  0  0  0  0  0  0
    4.5810   -0.5561    0.6616 C   0  0  0  0  0  0  0  0  0  0  0  0
    3.3742   -0.8236    0.0041 C   0  0  0  0  0  0  0  0  0  0  0  0
    3.2524   -2.0170   -0.7669 N   0  0  0  0  0  1  0  0  0  0  0  0
   -2.0976   -0.1389   -0.6037 C   0  0  0  0  0  0  0  0  0  0  0  0
   -2.5281    0.7134    0.4323 C   0  0  0  0  0  0  0  0  0  0  0  0
   -3.2708    1.8615    0.1413 C   0  0  0  0  0  0  0  0  0  0  0  0
   -3.5915    2.1721   -1.1820 C   0  0  0  0  0  0  0  0  0  0  0  0
   -3.1699    1.3352   -2.2176 C   0  0  0  0  0  0  0  0  0  0  0  0
   -2.4268    0.1857   -1.9325 C   0  0  0  0  0  0  0  0  0  0  0  0
   -3.0532   -2.5925    0.0754 H   0  0  0  0  0  0  0  0  0  0  0  0
   -2.2708   -1.9399    1.5688 H   0  0  0  0  0  0  0  0  0  0  0  0
   -1.5193   -3.3145    0.6769 H   0  0  0  0  0  0  0  0  0  0  0  0
   -1.0551   -1.9165   -1.2593 H   0  0  0  0  0  0  0  0  0  0  0  0
   -0.0964   -0.5054    1.3180 H   0  0  0  0  0  0  0  0  0  0  0  0
    0.6044   -1.9899    0.5955 H   0  0  0  0  0  0  0  0  0  0  0  0
    1.1293   -0.7164   -1.5216 H   0  0  0  0  0  0  0  0  0  0  0  0
    0.4685    0.7704   -0.7887 H   0  0  0  0  0  0  0  0  0  0  0  0
    1.6225    1.9269    1.0244 H   0  0  0  0  0  0  0  0  0  0  0  0
    3.7599    2.3789    2.1680 H   0  0  0  0  0  0  0  0  0  0  0  0
    5.6549    0.7994    1.9436 H   0  0  0  0  0  0  0  0  0  0  0  0
    5.4115   -1.2458    0.5761 H   0  0  0  0  0  0  0  0  0  0  0  0
   -2.2890    0.4929    1.4643 H   0  0  0  0  0  0  0  0  0  0  0  0
   -3.5973    2.5114    0.9429 H   0  0  0  0  0  0  0  0  0  0  0  0
   -4.1662    3.0618   -1.4051 H   0  0  0  0  0  0  0  0  0  0  0  0
   -3.4181    1.5777   -3.2428 H   0  0  0  0  0  0  0  0  0  0  0  0
   -2.1064   -0.4480   -2.7500 H   0  0  0  0  0  0  0  0  0  0  0  0
  1  2  1  0
  2  3  1  0
  3  4  1  0
  4  5  1  0
  5  6  2  0
  6  7  1  0
  7  8  2  0
  8  9  1  0
  9 10  2  0
 10 11  1  0
  2 12  1  0
 12 13  2  0
 13 14  1  0
 14 15  2  0
 15 16  1  0
 16 17  2  0
 10  5  1  0
 17 12  1  0
  1 18  1  0
  1 19  1  0
  1 20  1  0
  2 21  1  0
  3 22  1  0
  3 23  1  0
  4 24  1  0
  4 25  1  0
  6 26  1  0
  7 27  1  0
  8 28  1  0
  9 29  1  0
 13 30  1  0
 14 31  1  0
 15 32  1  0
 16 33  1  0
 17 34  1  0
M  RAD  1  11   3
M  END
$$$$
