
     RDKit          3D

 34 35  0  0  0  0  0  0  0  0999 V2000
   -1.8365   -2.5608    0.5392 C   0  0  0  0  0  0  0  0  0  0  0  0
   -1.3262   -1.1334    0.7745 C   0  0  0  0  0  0  0  0  0  0  0  0
    0.1666   -1.0168    0.3978 C   0  0  0  0  0  0  0  0  0  0  0  0
    0.7536    0.3524    0.7717 C   0  0  0  0  0  0  0  0  0  0  0  0
    2.2221    0.4108    0.4298 C   0  0  0  0  0  0  0  0  0  0  0  0
    2.6184    0.8675   -0.8395 C   0  0  0  0  0  0  0  0  0  0  0  0
    3.9709    0.9010   -1.1893 C   0  0  0  0  0  0  0  0  0  0  0  0
    4.9398    0.4698   -0.2812 C   0  0  0  0  0  0  0  0  0  0  0  0
    4.5584   -0.0009    0.9775 C   0  0  0  0  0  0  0  0  0  0  0  0
    3.2057   -0.0385    1.3370 C   0  0  0  0  0  0  0  0  0  0  0  0
    2.8417   -0.5389    2.6218 N   0  0  0  0  0  1  0  0  0  0  0  0
   -2.1832   -0.1297    0.0220 C   0  0  0  0  0  0  0  0  0  0  0  0
   -2.8980    0.8540    0.7298 C   0  0  0  0  0  0  0  0  0  0  0  0
   -3.6798    1.7904    0.0466 C   0  0  0  0  0  0  0  0  0  0  0  0
   -3.7567    1.7560   -1.3475 C   0  0  0  0  0  0  0  0  0  0  0  0
   -3.0515    0.7849   -2.0618 C   0  0  0  0  0  0  0  0  0  0  0  0
   -2.2682   -0.1539   -1.3841 C   0  0  0  0  0  0  0  0  0  0  0  0
   -1.2774   -3.2758    1.1799 H   0  0  0  0  0  0  0  0  0  0  0  0
   -1.7064   -2.8629   -0.5217 H   0  0  0  0  0  0  0  0  0  0  0  0
   -2.9135   -2.6297    0.8036 H   0  0  0  0  0  0  0  0  0  0  0  0
   -1.4097   -0.9463    1.8690 H   0  0  0  0  0  0  0  0  0  0  0  0
    0.3041   -1.1961   -0.6909 H   0  0  0  0  0  0  0  0  0  0  0  0
    0.7350   -1.8048    0.9401 H   0  0  0  0  0  0  0  0  0  0  0  0
    0.2145    1.1570    0.2255 H   0  0  0  0  0  0  0  0  0  0  0  0
    0.6042    0.5454    1.8561 H   0  0  0  0  0  0  0  0  0  0  0  0
    1.8787    1.1964   -1.5592 H   0  0  0  0  0  0  0  0  0  0  0  0
    4.2677    1.2584   -2.1669 H   0  0  0  0  0  0  0  0  0  0  0  0
    5.9867    0.4953   -0.5547 H   0  0  0  0  0  0  0  0  0  0  0  0
    5.3157   -0.3409    1.6730 H   0  0  0  0  0  0  0  0  0  0  0  0
   -2.8488    0.9001    1.8105 H   0  0  0  0  0  0  0  0  0  0  0  0
   -4.2258    2.5443    0.5990 H   0  0  0  0  0  0  0  0  0  0  0  0
   -4.3621    2.4822   -1.8742 H   0  0  0  0  0  0  0  0  0  0  0  0
   -3.1111    0.7598   -3.1423 H   0  0  0  0  0  0  0  0  0  0  0  0
   -1.7285   -0.8962   -1.9575 H   0  0  0  0  0  0  0  0  0  0  0  0
  1  2  1  0
  2  3  1  0
  3  4  1  0
  4  5  1  0
  5  6  2  0
  6  7  1  0
  7  8  2  0
  8  9  1  0
  9 10  2  0
 10 11  1  0
  2 12  1  0
 12 13  2  0
 13 14  1  0
 14 15  2  0
 15 16  1  0
 16 17  2  0
 10  5  1  0
 17 12  1  0
  1 18  1  0
  1 19  1  0
  1 20  1  0
  2 21  1  0
  3 22  1  0
  3 23  1  0
  4 24  1  0
  4 25  1  0
  6 26  1  0
  7 27  1  0
  8 28  1  0
  9 29  1  0
 13 30  1  0
 14 31  1  0
 15 32  1  0
 16 33  1  0
 17 34  1  0
M  RAD  1  11   3
M  END
$$$$
