
     RDKit          3D

 34 35  0  0  0  0  0  0  0  0999 V2000
   -1.7329   -1.7269   -2.0580 C   0  0  0  0  0  0  0  0  0  0  0  0
   -1.0095   -1.4429   -0.7353 C   0  0  0  0  0  0  0  0  0  0  0  0
    0.1968   -0.5062   -0.9614 C   0  0  0  0  0  0  0  0  0  0  0  0
    1.0399   -0.3294    0.3102 C   0  0  0  0  0  0  0  0  0  0  0  0
    2.2319    0.5546    0.0373 C   0  0  0  0  0  0  0  0  0  0  0  0
    2.1182    1.9439    0.2210 C   0  0  0  0  0  0  0  0  0  0  0  0
    3.1993    2.7852   -0.0551 C   0  0  0  0  0  0  0  0  0  0  0  0
    4.3998    2.2507   -0.5267 C   0  0  0  0  0  0  0  0  0  0  0  0
    4.5210    0.8738   -0.7284 C   0  0  0  0  0  0  0  0  0  0  0  0
    3.4432    0.0228   -0.4548 C   0  0  0  0  0  0  0  0  0  0  0  0
    3.5873   -1.3772   -0.6848 N   0  0  0  0  0  1  0  0  0  0  0  0
   -1.9784   -0.8852    0.2934 C   0  0  0  0  0  0  0  0  0  0  0  0
   -2.6388    0.3413    0.0822 C   0  0  0  0  0  0  0  0  0  0  0  0
   -3.5177    0.8466    1.0448 C   0  0  0  0  0  0  0  0  0  0  0  0
   -3.7472    0.1370    2.2256 C   0  0  0  0  0  0  0  0  0  0  0  0
   -3.0980   -1.0797    2.4465 C   0  0  0  0  0  0  0  0  0  0  0  0
   -2.2179   -1.5898    1.4874 C   0  0  0  0  0  0  0  0  0  0  0  0
   -1.0459   -2.2381   -2.7658 H   0  0  0  0  0  0  0  0  0  0  0  0
   -2.6045   -2.3930   -1.8812 H   0  0  0  0  0  0  0  0  0  0  0  0
   -2.0885   -0.7864   -2.5299 H   0  0  0  0  0  0  0  0  0  0  0  0
   -0.6112   -2.4197   -0.3791 H   0  0  0  0  0  0  0  0  0  0  0  0
    0.8431   -0.9405   -1.7562 H   0  0  0  0  0  0  0  0  0  0  0  0
   -0.1495    0.4880   -1.3196 H   0  0  0  0  0  0  0  0  0  0  0  0
    0.4204    0.1232    1.1149 H   0  0  0  0  0  0  0  0  0  0  0  0
    1.3752   -1.3213    0.6833 H   0  0  0  0  0  0  0  0  0  0  0  0
    1.1907    2.3756    0.5769 H   0  0  0  0  0  0  0  0  0  0  0  0
    3.1048    3.8532    0.0934 H   0  0  0  0  0  0  0  0  0  0  0  0
    5.2354    2.9044   -0.7412 H   0  0  0  0  0  0  0  0  0  0  0  0
    5.4529    0.4682   -1.1019 H   0  0  0  0  0  0  0  0  0  0  0  0
   -2.4740    0.9085   -0.8245 H   0  0  0  0  0  0  0  0  0  0  0  0
   -4.0207    1.7898    0.8752 H   0  0  0  0  0  0  0  0  0  0  0  0
   -4.4277    0.5303    2.9698 H   0  0  0  0  0  0  0  0  0  0  0  0
   -3.2758   -1.6280    3.3626 H   0  0  0  0  0  0  0  0  0  0  0  0
   -1.7217   -2.5329    1.6795 H   0  0  0  0  0  0  0  0  0  0  0  0
  1  2  1  0
  2  3  1  0
  3  4  1  0
  4  5  1  0
  5  6  2  0
  6  7  1  0
  7  8  2  0
  8  9  1  0
  9 10  2  0
 10 11  1  0
  2 12  1  0
 12 13  2  0
 13 14  1  0
 14 15  2  0
 15 16  1  0
 16 17  2  0
 10  5  1  0
 17 12  1  0
  1 18  1  0
  1 19  1  0
  1 20  1  0
  2 21  1  0
  3 22  1  0
  3 23  1  0
  4 24  1  0
  4 25  1  0
  6 26  1  0
  7 27  1  0
  8 28  1  0
  9 29  1  0
 13 30  1  0
 14 31  1  0
 15 32  1  0
 16 33  1  0
 17 34  1  0
M  RAD  1  11   3
M  END
$$$$
