
     RDKit          3D

 34 35  0  0  0  0  0  0  0  0999 V2000
   -1.4267   -2.6549   -1.0448 C   0  0  0  0  0  0  0  0  0  0  0  0
   -1.0577   -1.5882   -0.0059 C   0  0  0  0  0  0  0  0  0  0  0  0
    0.3402   -1.0010   -0.2972 C   0  0  0  0  0  0  0  0  0  0  0  0
    0.8116   -0.0486    0.8118 C   0  0  0  0  0  0  0  0  0  0  0  0
    2.1976    0.4680    0.5132 C   0  0  0  0  0  0  0  0  0  0  0  0
    2.3483    1.6552   -0.2247 C   0  0  0  0  0  0  0  0  0  0  0  0
    3.6221    2.1360   -0.5397 C   0  0  0  0  0  0  0  0  0  0  0  0
    4.7568    1.4324   -0.1312 C   0  0  0  0  0  0  0  0  0  0  0  0
    4.6208    0.2433    0.5891 C   0  0  0  0  0  0  0  0  0  0  0  0
    3.3487   -0.2465    0.9092 C   0  0  0  0  0  0  0  0  0  0  0  0
    3.2369   -1.4713    1.6311 N   0  0  0  0  0  1  0  0  0  0  0  0
   -2.1266   -0.5103    0.0547 C   0  0  0  0  0  0  0  0  0  0  0  0
   -2.4124    0.2958   -1.0649 C   0  0  0  0  0  0  0  0  0  0  0  0
   -3.3904    1.2918   -0.9885 C   0  0  0  0  0  0  0  0  0  0  0  0
   -4.0922    1.4951    0.2017 C   0  0  0  0  0  0  0  0  0  0  0  0
   -3.8174    0.7027    1.3185 C   0  0  0  0  0  0  0  0  0  0  0  0
   -2.8403   -0.2949    1.2479 C   0  0  0  0  0  0  0  0  0  0  0  0
   -0.7005   -3.4946   -1.0031 H   0  0  0  0  0  0  0  0  0  0  0  0
   -1.4184   -2.2331   -2.0722 H   0  0  0  0  0  0  0  0  0  0  0  0
   -2.4381   -3.0623   -0.8311 H   0  0  0  0  0  0  0  0  0  0  0  0
   -1.0018   -2.1114    0.9754 H   0  0  0  0  0  0  0  0  0  0  0  0
    0.3373   -0.4653   -1.2717 H   0  0  0  0  0  0  0  0  0  0  0  0
    1.0698   -1.8372   -0.3784 H   0  0  0  0  0  0  0  0  0  0  0  0
    0.8005   -0.5732    1.7916 H   0  0  0  0  0  0  0  0  0  0  0  0
    0.1084    0.8082    0.8987 H   0  0  0  0  0  0  0  0  0  0  0  0
    1.4783    2.2079   -0.5576 H   0  0  0  0  0  0  0  0  0  0  0  0
    3.7293    3.0533   -1.1042 H   0  0  0  0  0  0  0  0  0  0  0  0
    5.7424    1.8060   -0.3774 H   0  0  0  0  0  0  0  0  0  0  0  0
    5.5058   -0.3004    0.8952 H   0  0  0  0  0  0  0  0  0  0  0  0
   -1.8793    0.1568   -1.9963 H   0  0  0  0  0  0  0  0  0  0  0  0
   -3.6037    1.9071   -1.8530 H   0  0  0  0  0  0  0  0  0  0  0  0
   -4.8487    2.2671    0.2588 H   0  0  0  0  0  0  0  0  0  0  0  0
   -4.3611    0.8621    2.2407 H   0  0  0  0  0  0  0  0  0  0  0  0
   -2.6396   -0.8958    2.1259 H   0  0  0  0  0  0  0  0  0  0  0  0
  1  2  1  0
  2  3  1  0
  3  4  1  0
  4  5  1  0
  5  6  2  0
  6  7  1  0
  7  8  2  0
  8  9  1  0
  9 10  2  0
 10 11  1  0
  2 12  1  0
 12 13  2  0
 13 14  1  0
 14 15  2  0
 15 16  1  0
 16 17  2  0
 10  5  1  0
 17 12  1  0
  1 18  1  0
  1 19  1  0
  1 20  1  0
  2 21  1  0
  3 22  1  0
  3 23  1  0
  4 24  1  0
  4 25  1  0
  6 26  1  0
  7 27  1  0
  8 28  1  0
  9 29  1  0
 13 30  1  0
 14 31  1  0
 15 32  1  0
 16 33  1  0
 17 34  1  0
M  RAD  1  11   3
M  END
$$$$
