
     RDKit          3D

 34 35  0  0  0  0  0  0  0  0999 V2000
   -0.0210   -0.4098    2.2674 C   0  0  0  0  0  0  0  0  0  0  0  0
    0.8850    0.6115    1.5579 C   0  0  0  0  0  0  0  0  0  0  0  0
    0.0875    1.7866    0.9355 C   0  0  0  0  0  0  0  0  0  0  0  0
   -0.5639    1.5302   -0.4418 C   0  0  0  0  0  0  0  0  0  0  0  0
   -1.7479    0.5913   -0.3955 C   0  0  0  0  0  0  0  0  0  0  0  0
   -1.6615   -0.6659   -1.0212 C   0  0  0  0  0  0  0  0  0  0  0  0
   -2.7390   -1.5541   -0.9815 C   0  0  0  0  0  0  0  0  0  0  0  0
   -3.9210   -1.1922   -0.3338 C   0  0  0  0  0  0  0  0  0  0  0  0
   -4.0331    0.0643    0.2649 C   0  0  0  0  0  0  0  0  0  0  0  0
   -2.9588    0.9615    0.2312 C   0  0  0  0  0  0  0  0  0  0  0  0
   -3.1187    2.2536    0.8125 N   0  0  0  0  0  1  0  0  0  0  0  0
    1.8867    0.0028    0.5854 C   0  0  0  0  0  0  0  0  0  0  0  0
    3.0443    0.7350    0.2601 C   0  0  0  0  0  0  0  0  0  0  0  0
    3.9734    0.2309   -0.6544 C   0  0  0  0  0  0  0  0  0  0  0  0
    3.7582   -1.0080   -1.2600 C   0  0  0  0  0  0  0  0  0  0  0  0
    2.6135   -1.7451   -0.9520 C   0  0  0  0  0  0  0  0  0  0  0  0
    1.6810   -1.2465   -0.0374 C   0  0  0  0  0  0  0  0  0  0  0  0
   -0.6095    0.0948    3.0631 H   0  0  0  0  0  0  0  0  0  0  0  0
    0.5990   -1.1964    2.7482 H   0  0  0  0  0  0  0  0  0  0  0  0
   -0.7318   -0.8949    1.5731 H   0  0  0  0  0  0  0  0  0  0  0  0
    1.4867    1.0592    2.3815 H   0  0  0  0  0  0  0  0  0  0  0  0
    0.7924    2.6370    0.8045 H   0  0  0  0  0  0  0  0  0  0  0  0
   -0.6730    2.1430    1.6614 H   0  0  0  0  0  0  0  0  0  0  0  0
    0.2031    1.1695   -1.1603 H   0  0  0  0  0  0  0  0  0  0  0  0
   -0.9155    2.5041   -0.8461 H   0  0  0  0  0  0  0  0  0  0  0  0
   -0.7598   -0.9613   -1.5414 H   0  0  0  0  0  0  0  0  0  0  0  0
   -2.6585   -2.5230   -1.4571 H   0  0  0  0  0  0  0  0  0  0  0  0
   -4.7552   -1.8812   -0.3057 H   0  0  0  0  0  0  0  0  0  0  0  0
   -4.9601    0.3442    0.7495 H   0  0  0  0  0  0  0  0  0  0  0  0
    3.2257    1.7015    0.7140 H   0  0  0  0  0  0  0  0  0  0  0  0
    4.8597    0.8034   -0.8956 H   0  0  0  0  0  0  0  0  0  0  0  0
    4.4778   -1.3964   -1.9691 H   0  0  0  0  0  0  0  0  0  0  0  0
    2.4469   -2.7048   -1.4240 H   0  0  0  0  0  0  0  0  0  0  0  0
    0.8073   -1.8448    0.1751 H   0  0  0  0  0  0  0  0  0  0  0  0
  1  2  1  0
  2  3  1  0
  3  4  1  0
  4  5  1  0
  5  6  2  0
  6  7  1  0
  7  8  2  0
  8  9  1  0
  9 10  2  0
 10 11  1  0
  2 12  1  0
 12 13  2  0
 13 14  1  0
 14 15  2  0
 15 16  1  0
 16 17  2  0
 10  5  1  0
 17 12  1  0
  1 18  1  0
  1 19  1  0
  1 20  1  0
  2 21  1  0
  3 22  1  0
  3 23  1  0
  4 24  1  0
  4 25  1  0
  6 26  1  0
  7 27  1  0
  8 28  1  0
  9 29  1  0
 13 30  1  0
 14 31  1  0
 15 32  1  0
 16 33  1  0
 17 34  1  0
M  RAD  1  11   3
M  END
$$$$
