
     RDKit          3D

 34 35  0  0  0  0  0  0  0  0999 V2000
   -2.0915   -2.4096    0.2806 C   0  0  0  0  0  0  0  0  0  0  0  0
   -1.3014   -1.1991    0.7945 C   0  0  0  0  0  0  0  0  0  0  0  0
    0.0697   -1.1019    0.0914 C   0  0  0  0  0  0  0  0  0  0  0  0
    0.9535    0.0001    0.6943 C   0  0  0  0  0  0  0  0  0  0  0  0
    2.2988    0.0334    0.0117 C   0  0  0  0  0  0  0  0  0  0  0  0
    2.4811    0.8524   -1.1164 C   0  0  0  0  0  0  0  0  0  0  0  0
    3.7090    0.8758   -1.7832 C   0  0  0  0  0  0  0  0  0  0  0  0
    4.7628    0.0755   -1.3379 C   0  0  0  0  0  0  0  0  0  0  0  0
    4.5901   -0.7544   -0.2276 C   0  0  0  0  0  0  0  0  0  0  0  0
    3.3634   -0.7850    0.4468 C   0  0  0  0  0  0  0  0  0  0  0  0
    3.2078   -1.6530    1.5675 N   0  0  0  0  0  1  0  0  0  0  0  0
   -2.1141    0.0746    0.6359 C   0  0  0  0  0  0  0  0  0  0  0  0
   -2.4742    0.8241    1.7709 C   0  0  0  0  0  0  0  0  0  0  0  0
   -3.2113    2.0045    1.6356 C   0  0  0  0  0  0  0  0  0  0  0  0
   -3.5960    2.4494    0.3688 C   0  0  0  0  0  0  0  0  0  0  0  0
   -3.2444    1.7149   -0.7658 C   0  0  0  0  0  0  0  0  0  0  0  0
   -2.5076    0.5339   -0.6365 C   0  0  0  0  0  0  0  0  0  0  0  0
   -2.2512   -2.3470   -0.8168 H   0  0  0  0  0  0  0  0  0  0  0  0
   -3.0797   -2.4631    0.7858 H   0  0  0  0  0  0  0  0  0  0  0  0
   -1.5390   -3.3474    0.5030 H   0  0  0  0  0  0  0  0  0  0  0  0
   -1.1096   -1.3851    1.8755 H   0  0  0  0  0  0  0  0  0  0  0  0
    0.5969   -2.0758    0.1990 H   0  0  0  0  0  0  0  0  0  0  0  0
   -0.0677   -0.9155   -0.9962 H   0  0  0  0  0  0  0  0  0  0  0  0
    1.0809   -0.1708    1.7852 H   0  0  0  0  0  0  0  0  0  0  0  0
    0.4565    0.9882    0.5804 H   0  0  0  0  0  0  0  0  0  0  0  0
    1.6707    1.4720   -1.4806 H   0  0  0  0  0  0  0  0  0  0  0  0
    3.8423    1.5126   -2.6482 H   0  0  0  0  0  0  0  0  0  0  0  0
    5.7126    0.0942   -1.8567 H   0  0  0  0  0  0  0  0  0  0  0  0
    5.4100   -1.3779    0.1064 H   0  0  0  0  0  0  0  0  0  0  0  0
   -2.1825    0.4983    2.7615 H   0  0  0  0  0  0  0  0  0  0  0  0
   -3.4834    2.5753    2.5140 H   0  0  0  0  0  0  0  0  0  0  0  0
   -4.1661    3.3637    0.2664 H   0  0  0  0  0  0  0  0  0  0  0  0
   -3.5424    2.0613   -1.7470 H   0  0  0  0  0  0  0  0  0  0  0  0
   -2.2441   -0.0184   -1.5290 H   0  0  0  0  0  0  0  0  0  0  0  0
  1  2  1  0
  2  3  1  0
  3  4  1  0
  4  5  1  0
  5  6  2  0
  6  7  1  0
  7  8  2  0
  8  9  1  0
  9 10  2  0
 10 11  1  0
  2 12  1  0
 12 13  2  0
 13 14  1  0
 14 15  2  0
 15 16  1  0
 16 17  2  0
 10  5  1  0
 17 12  1  0
  1 18  1  0
  1 19  1  0
  1 20  1  0
  2 21  1  0
  3 22  1  0
  3 23  1  0
  4 24  1  0
  4 25  1  0
  6 26  1  0
  7 27  1  0
  8 28  1  0
  9 29  1  0
 13 30  1  0
 14 31  1  0
 15 32  1  0
 16 33  1  0
 17 34  1  0
M  RAD  1  11   3
M  END
$$$$
