
     RDKit          3D

 33 33  0  0  0  0  0  0  0  0999 V2000
   -4.3184    0.0036    1.0038 C   0  0  0  0  0  0  0  0  0  0  0  0
   -2.7364    0.3387    0.0716 Si  0  0  0  0  0  4  0  0  0  0  0  0
   -2.5085    2.1852   -0.0945 C   0  0  0  0  0  0  0  0  0  0  0  0
   -2.8577   -0.4289   -1.6270 C   0  0  0  0  0  0  0  0  0  0  0  0
   -1.3038   -0.4114    1.0251 C   0  0  0  0  0  0  0  0  0  0  0  0
    0.0315   -0.1754    0.3156 C   0  0  0  0  0  0  0  0  0  0  0  0
    1.1890   -0.7914    1.1081 C   0  0  0  0  0  0  0  0  0  0  0  0
    2.5011   -0.5545    0.4011 C   0  0  0  0  0  0  0  0  0  0  0  0
    2.9761   -1.5099   -0.5145 C   0  0  0  0  0  0  0  0  0  0  0  0
    4.1728   -1.2961   -1.2038 C   0  0  0  0  0  0  0  0  0  0  0  0
    4.9015   -0.1237   -0.9946 C   0  0  0  0  0  0  0  0  0  0  0  0
    4.4330    0.8406   -0.0990 C   0  0  0  0  0  0  0  0  0  0  0  0
    3.2350    0.6354    0.5961 C   0  0  0  0  0  0  0  0  0  0  0  0
    2.7704    1.6425    1.4925 N   0  0  0  0  0  1  0  0  0  0  0  0
   -5.1737    0.4424    0.4501 H   0  0  0  0  0  0  0  0  0  0  0  0
   -4.2565    0.4611    2.0125 H   0  0  0  0  0  0  0  0  0  0  0  0
   -4.4639   -1.0916    1.1024 H   0  0  0  0  0  0  0  0  0  0  0  0
   -3.4007    2.6233   -0.5870 H   0  0  0  0  0  0  0  0  0  0  0  0
   -1.6097    2.3969   -0.7089 H   0  0  0  0  0  0  0  0  0  0  0  0
   -2.3840    2.6338    0.9123 H   0  0  0  0  0  0  0  0  0  0  0  0
   -3.7554   -0.0346   -2.1457 H   0  0  0  0  0  0  0  0  0  0  0  0
   -1.9529   -0.1761   -2.2165 H   0  0  0  0  0  0  0  0  0  0  0  0
   -2.9410   -1.5307   -1.5290 H   0  0  0  0  0  0  0  0  0  0  0  0
   -1.4896   -1.5015    1.1303 H   0  0  0  0  0  0  0  0  0  0  0  0
   -1.2819    0.0477    2.0364 H   0  0  0  0  0  0  0  0  0  0  0  0
   -0.0002   -0.6339   -0.6970 H   0  0  0  0  0  0  0  0  0  0  0  0
    0.2045    0.9174    0.2060 H   0  0  0  0  0  0  0  0  0  0  0  0
    1.0174   -1.8840    1.2281 H   0  0  0  0  0  0  0  0  0  0  0  0
    1.2224   -0.3565    2.1307 H   0  0  0  0  0  0  0  0  0  0  0  0
    2.4182   -2.4204   -0.6958 H   0  0  0  0  0  0  0  0  0  0  0  0
    4.5336   -2.0388   -1.9037 H   0  0  0  0  0  0  0  0  0  0  0  0
    5.8274    0.0404   -1.5306 H   0  0  0  0  0  0  0  0  0  0  0  0
    5.0002    1.7506    0.0516 H   0  0  0  0  0  0  0  0  0  0  0  0
  1  2  1  0
  2  3  1  0
  2  4  1  0
  2  5  1  0
  5  6  1  0
  6  7  1  0
  7  8  1  0
  8  9  2  0
  9 10  1  0
 10 11  2  0
 11 12  1  0
 12 13  2  0
 13 14  1  0
 13  8  1  0
  1 15  1  0
  1 16  1  0
  1 17  1  0
  3 18  1  0
  3 19  1  0
  3 20  1  0
  4 21  1  0
  4 22  1  0
  4 23  1  0
  5 24  1  0
  5 25  1  0
  6 26  1  0
  6 27  1  0
  7 28  1  0
  7 29  1  0
  9 30  1  0
 10 31  1  0
 11 32  1  0
 12 33  1  0
M  RAD  1  14   3
M  END
$$$$
