
     RDKit          3D

 33 33  0  0  0  0  0  0  0  0999 V2000
   -3.2712   -0.1278    1.7411 C   0  0  0  0  0  0  0  0  0  0  0  0
   -2.2217   -0.0923    0.1972 Si  0  0  0  0  0  4  0  0  0  0  0  0
   -1.8262   -1.8594   -0.2637 C   0  0  0  0  0  0  0  0  0  0  0  0
   -3.2179    0.6958   -1.1739 C   0  0  0  0  0  0  0  0  0  0  0  0
   -0.6545    0.8875    0.5808 C   0  0  0  0  0  0  0  0  0  0  0  0
   -0.0522    1.6229   -0.6272 C   0  0  0  0  0  0  0  0  0  0  0  0
    0.6713    0.7042   -1.6255 C   0  0  0  0  0  0  0  0  0  0  0  0
    1.9545    0.1415   -1.0569 C   0  0  0  0  0  0  0  0  0  0  0  0
    1.9827   -1.1766   -0.5684 C   0  0  0  0  0  0  0  0  0  0  0  0
    3.1540   -1.7044   -0.0191 C   0  0  0  0  0  0  0  0  0  0  0  0
    4.3093   -0.9239    0.0486 C   0  0  0  0  0  0  0  0  0  0  0  0
    4.2965    0.3867   -0.4339 C   0  0  0  0  0  0  0  0  0  0  0  0
    3.1274    0.9246   -0.9854 C   0  0  0  0  0  0  0  0  0  0  0  0
    3.1433    2.2641   -1.4745 N   0  0  0  0  0  1  0  0  0  0  0  0
   -4.1959   -0.7089    1.5467 H   0  0  0  0  0  0  0  0  0  0  0  0
   -2.7006   -0.6046    2.5644 H   0  0  0  0  0  0  0  0  0  0  0  0
   -3.5401    0.9091    2.0293 H   0  0  0  0  0  0  0  0  0  0  0  0
   -1.1556   -2.2996    0.5023 H   0  0  0  0  0  0  0  0  0  0  0  0
   -2.7679   -2.4442   -0.3050 H   0  0  0  0  0  0  0  0  0  0  0  0
   -1.3373   -1.8974   -1.2569 H   0  0  0  0  0  0  0  0  0  0  0  0
   -4.1661    0.1360   -1.3073 H   0  0  0  0  0  0  0  0  0  0  0  0
   -3.4455    1.7485   -0.9085 H   0  0  0  0  0  0  0  0  0  0  0  0
   -2.6395    0.6661   -2.1200 H   0  0  0  0  0  0  0  0  0  0  0  0
   -0.9349    1.6501    1.3377 H   0  0  0  0  0  0  0  0  0  0  0  0
    0.0933    0.2179    1.0534 H   0  0  0  0  0  0  0  0  0  0  0  0
   -0.8492    2.1847   -1.1583 H   0  0  0  0  0  0  0  0  0  0  0  0
    0.6645    2.3849   -0.2519 H   0  0  0  0  0  0  0  0  0  0  0  0
    0.9081    1.2905   -2.5395 H   0  0  0  0  0  0  0  0  0  0  0  0
   -0.0052   -0.1090   -1.9576 H   0  0  0  0  0  0  0  0  0  0  0  0
    1.0985   -1.7974   -0.6113 H   0  0  0  0  0  0  0  0  0  0  0  0
    3.1655   -2.7200    0.3551 H   0  0  0  0  0  0  0  0  0  0  0  0
    5.2155   -1.3348    0.4745 H   0  0  0  0  0  0  0  0  0  0  0  0
    5.1973    0.9852   -0.3789 H   0  0  0  0  0  0  0  0  0  0  0  0
  1  2  1  0
  2  3  1  0
  2  4  1  0
  2  5  1  0
  5  6  1  0
  6  7  1  0
  7  8  1  0
  8  9  2  0
  9 10  1  0
 10 11  2  0
 11 12  1  0
 12 13  2  0
 13 14  1  0
 13  8  1  0
  1 15  1  0
  1 16  1  0
  1 17  1  0
  3 18  1  0
  3 19  1  0
  3 20  1  0
  4 21  1  0
  4 22  1  0
  4 23  1  0
  5 24  1  0
  5 25  1  0
  6 26  1  0
  6 27  1  0
  7 28  1  0
  7 29  1  0
  9 30  1  0
 10 31  1  0
 11 32  1  0
 12 33  1  0
M  RAD  1  14   3
M  END
$$$$
