
     RDKit          3D

 33 33  0  0  0  0  0  0  0  0999 V2000
   -2.3227    0.0512    1.3422 C   0  0  0  0  0  0  0  0  0  0  0  0
   -2.2862    0.2680   -0.5127 Si  0  0  0  0  0  4  0  0  0  0  0  0
   -3.4197   -0.9907   -1.3011 C   0  0  0  0  0  0  0  0  0  0  0  0
   -2.9316    1.9737   -0.9114 C   0  0  0  0  0  0  0  0  0  0  0  0
   -0.5496    0.1279   -1.2318 C   0  0  0  0  0  0  0  0  0  0  0  0
    0.0986   -1.2562   -1.0543 C   0  0  0  0  0  0  0  0  0  0  0  0
    0.8063   -1.4488    0.2981 C   0  0  0  0  0  0  0  0  0  0  0  0
    2.0363   -0.5800    0.4343 C   0  0  0  0  0  0  0  0  0  0  0  0
    1.9724    0.6026    1.1929 C   0  0  0  0  0  0  0  0  0  0  0  0
    3.0936    1.4273    1.3152 C   0  0  0  0  0  0  0  0  0  0  0  0
    4.2895    1.0814    0.6836 C   0  0  0  0  0  0  0  0  0  0  0  0
    4.3676   -0.0906   -0.0721 C   0  0  0  0  0  0  0  0  0  0  0  0
    3.2493   -0.9231   -0.2014 C   0  0  0  0  0  0  0  0  0  0  0  0
    3.3576   -2.1166   -0.9743 N   0  0  0  0  0  1  0  0  0  0  0  0
   -3.3115    0.3741    1.7273 H   0  0  0  0  0  0  0  0  0  0  0  0
   -2.1707   -1.0167    1.5987 H   0  0  0  0  0  0  0  0  0  0  0  0
   -1.5283    0.6709    1.8057 H   0  0  0  0  0  0  0  0  0  0  0  0
   -3.3671   -0.8947   -2.4049 H   0  0  0  0  0  0  0  0  0  0  0  0
   -4.4608   -0.8098   -0.9637 H   0  0  0  0  0  0  0  0  0  0  0  0
   -3.1115   -2.0130   -1.0019 H   0  0  0  0  0  0  0  0  0  0  0  0
   -2.9410    2.1174   -2.0113 H   0  0  0  0  0  0  0  0  0  0  0  0
   -2.2740    2.7353   -0.4444 H   0  0  0  0  0  0  0  0  0  0  0  0
   -3.9622    2.0815   -0.5154 H   0  0  0  0  0  0  0  0  0  0  0  0
   -0.6469    0.3298   -2.3196 H   0  0  0  0  0  0  0  0  0  0  0  0
    0.0868    0.9313   -0.8095 H   0  0  0  0  0  0  0  0  0  0  0  0
   -0.6646   -2.0526   -1.1818 H   0  0  0  0  0  0  0  0  0  0  0  0
    0.8403   -1.4042   -1.8688 H   0  0  0  0  0  0  0  0  0  0  0  0
    0.1030   -1.2562    1.1313 H   0  0  0  0  0  0  0  0  0  0  0  0
    1.1043   -2.5152    0.3943 H   0  0  0  0  0  0  0  0  0  0  0  0
    1.0521    0.8896    1.6860 H   0  0  0  0  0  0  0  0  0  0  0  0
    3.0346    2.3365    1.8996 H   0  0  0  0  0  0  0  0  0  0  0  0
    5.1568    1.7218    0.7797 H   0  0  0  0  0  0  0  0  0  0  0  0
    5.2993   -0.3522   -0.5580 H   0  0  0  0  0  0  0  0  0  0  0  0
  1  2  1  0
  2  3  1  0
  2  4  1  0
  2  5  1  0
  5  6  1  0
  6  7  1  0
  7  8  1  0
  8  9  2  0
  9 10  1  0
 10 11  2  0
 11 12  1  0
 12 13  2  0
 13 14  1  0
 13  8  1  0
  1 15  1  0
  1 16  1  0
  1 17  1  0
  3 18  1  0
  3 19  1  0
  3 20  1  0
  4 21  1  0
  4 22  1  0
  4 23  1  0
  5 24  1  0
  5 25  1  0
  6 26  1  0
  6 27  1  0
  7 28  1  0
  7 29  1  0
  9 30  1  0
 10 31  1  0
 11 32  1  0
 12 33  1  0
M  RAD  1  14   3
M  END
$$$$
