
     RDKit          3D

 33 33  0  0  0  0  0  0  0  0999 V2000
   -2.9012    1.6230   -0.3687 C   0  0  0  0  0  0  0  0  0  0  0  0
   -2.7191   -0.2220   -0.5968 Si  0  0  0  0  0  4  0  0  0  0  0  0
   -2.4167   -0.5995   -2.4010 C   0  0  0  0  0  0  0  0  0  0  0  0
   -4.2979   -1.0591   -0.0576 C   0  0  0  0  0  0  0  0  0  0  0  0
   -1.3035   -0.8715    0.4512 C   0  0  0  0  0  0  0  0  0  0  0  0
    0.0288   -0.2269    0.0619 C   0  0  0  0  0  0  0  0  0  0  0  0
    1.1717   -0.7661    0.9281 C   0  0  0  0  0  0  0  0  0  0  0  0
    2.4812   -0.1258    0.5370 C   0  0  0  0  0  0  0  0  0  0  0  0
    3.2891   -0.7409   -0.4354 C   0  0  0  0  0  0  0  0  0  0  0  0
    4.4901   -0.1491   -0.8354 C   0  0  0  0  0  0  0  0  0  0  0  0
    4.8918    1.0662   -0.2775 C   0  0  0  0  0  0  0  0  0  0  0  0
    4.0910    1.6955    0.6785 C   0  0  0  0  0  0  0  0  0  0  0  0
    2.8858    1.1104    1.0855 C   0  0  0  0  0  0  0  0  0  0  0  0
    2.0787    1.7812    2.0510 N   0  0  0  0  0  1  0  0  0  0  0  0
   -3.0284    1.8509    0.7094 H   0  0  0  0  0  0  0  0  0  0  0  0
   -1.9970    2.1378   -0.7527 H   0  0  0  0  0  0  0  0  0  0  0  0
   -3.7905    1.9771   -0.9292 H   0  0  0  0  0  0  0  0  0  0  0  0
   -1.5198   -0.0497   -2.7523 H   0  0  0  0  0  0  0  0  0  0  0  0
   -3.2976   -0.2824   -2.9959 H   0  0  0  0  0  0  0  0  0  0  0  0
   -2.2572   -1.6898   -2.5282 H   0  0  0  0  0  0  0  0  0  0  0  0
   -4.4876   -0.8354    1.0122 H   0  0  0  0  0  0  0  0  0  0  0  0
   -4.1998   -2.1555   -0.1948 H   0  0  0  0  0  0  0  0  0  0  0  0
   -5.1432   -0.6835   -0.6699 H   0  0  0  0  0  0  0  0  0  0  0  0
   -1.2464   -1.9723    0.3139 H   0  0  0  0  0  0  0  0  0  0  0  0
   -1.5325   -0.6546    1.5163 H   0  0  0  0  0  0  0  0  0  0  0  0
   -0.0406    0.8749    0.1932 H   0  0  0  0  0  0  0  0  0  0  0  0
    0.2484   -0.4448   -1.0062 H   0  0  0  0  0  0  0  0  0  0  0  0
    0.9578   -0.5727    2.0018 H   0  0  0  0  0  0  0  0  0  0  0  0
    1.2409   -1.8699    0.8072 H   0  0  0  0  0  0  0  0  0  0  0  0
    2.9875   -1.6788   -0.8853 H   0  0  0  0  0  0  0  0  0  0  0  0
    5.1083   -0.6315   -1.5815 H   0  0  0  0  0  0  0  0  0  0  0  0
    5.8218    1.5234   -0.5898 H   0  0  0  0  0  0  0  0  0  0  0  0
    4.4060    2.6417    1.1005 H   0  0  0  0  0  0  0  0  0  0  0  0
  1  2  1  0
  2  3  1  0
  2  4  1  0
  2  5  1  0
  5  6  1  0
  6  7  1  0
  7  8  1  0
  8  9  2  0
  9 10  1  0
 10 11  2  0
 11 12  1  0
 12 13  2  0
 13 14  1  0
 13  8  1  0
  1 15  1  0
  1 16  1  0
  1 17  1  0
  3 18  1  0
  3 19  1  0
  3 20  1  0
  4 21  1  0
  4 22  1  0
  4 23  1  0
  5 24  1  0
  5 25  1  0
  6 26  1  0
  6 27  1  0
  7 28  1  0
  7 29  1  0
  9 30  1  0
 10 31  1  0
 11 32  1  0
 12 33  1  0
M  RAD  1  14   3
M  END
$$$$
