
     RDKit          3D

 33 33  0  0  0  0  0  0  0  0999 V2000
    2.3602    1.0870    1.1863 C   0  0  0  0  0  0  0  0  0  0  0  0
    2.3247    0.2522   -0.4838 Si  0  0  0  0  0  4  0  0  0  0  0  0
    3.6207   -1.0926   -0.5193 C   0  0  0  0  0  0  0  0  0  0  0  0
    2.7451    1.5185   -1.7890 C   0  0  0  0  0  0  0  0  0  0  0  0
    0.6377   -0.4787   -0.8945 C   0  0  0  0  0  0  0  0  0  0  0  0
    0.1139   -1.4634    0.1656 C   0  0  0  0  0  0  0  0  0  0  0  0
   -0.7188   -0.7947    1.2735 C   0  0  0  0  0  0  0  0  0  0  0  0
   -2.0550   -0.2992    0.7651 C   0  0  0  0  0  0  0  0  0  0  0  0
   -3.0744   -1.2307    0.4981 C   0  0  0  0  0  0  0  0  0  0  0  0
   -4.3144   -0.8065    0.0137 C   0  0  0  0  0  0  0  0  0  0  0  0
   -4.5512    0.5506   -0.2102 C   0  0  0  0  0  0  0  0  0  0  0  0
   -3.5488    1.4875    0.0504 C   0  0  0  0  0  0  0  0  0  0  0  0
   -2.3028    1.0730    0.5364 C   0  0  0  0  0  0  0  0  0  0  0  0
   -1.3001    2.0539    0.7925 N   0  0  0  0  0  1  0  0  0  0  0  0
    1.5532    1.8452    1.2416 H   0  0  0  0  0  0  0  0  0  0  0  0
    3.3412    1.5861    1.3239 H   0  0  0  0  0  0  0  0  0  0  0  0
    2.2247    0.3298    1.9852 H   0  0  0  0  0  0  0  0  0  0  0  0
    3.5946   -1.6046   -1.5030 H   0  0  0  0  0  0  0  0  0  0  0  0
    4.6225   -0.6423   -0.3636 H   0  0  0  0  0  0  0  0  0  0  0  0
    3.4201   -1.8277    0.2864 H   0  0  0  0  0  0  0  0  0  0  0  0
    3.7466    1.9473   -1.5796 H   0  0  0  0  0  0  0  0  0  0  0  0
    1.9860    2.3273   -1.7760 H   0  0  0  0  0  0  0  0  0  0  0  0
    2.7515    1.0329   -2.7864 H   0  0  0  0  0  0  0  0  0  0  0  0
   -0.0825    0.3442   -1.0753 H   0  0  0  0  0  0  0  0  0  0  0  0
    0.7572   -1.0228   -1.8552 H   0  0  0  0  0  0  0  0  0  0  0  0
    0.9602   -2.0135    0.6295 H   0  0  0  0  0  0  0  0  0  0  0  0
   -0.5133   -2.2301   -0.3396 H   0  0  0  0  0  0  0  0  0  0  0  0
   -0.1430    0.0203    1.7525 H   0  0  0  0  0  0  0  0  0  0  0  0
   -0.9033   -1.5454    2.0726 H   0  0  0  0  0  0  0  0  0  0  0  0
   -2.9070   -2.2877    0.6652 H   0  0  0  0  0  0  0  0  0  0  0  0
   -5.0922   -1.5313   -0.1890 H   0  0  0  0  0  0  0  0  0  0  0  0
   -5.5123    0.8771   -0.5860 H   0  0  0  0  0  0  0  0  0  0  0  0
   -3.7412    2.5384   -0.1262 H   0  0  0  0  0  0  0  0  0  0  0  0
  1  2  1  0
  2  3  1  0
  2  4  1  0
  2  5  1  0
  5  6  1  0
  6  7  1  0
  7  8  1  0
  8  9  2  0
  9 10  1  0
 10 11  2  0
 11 12  1  0
 12 13  2  0
 13 14  1  0
 13  8  1  0
  1 15  1  0
  1 16  1  0
  1 17  1  0
  3 18  1  0
  3 19  1  0
  3 20  1  0
  4 21  1  0
  4 22  1  0
  4 23  1  0
  5 24  1  0
  5 25  1  0
  6 26  1  0
  6 27  1  0
  7 28  1  0
  7 29  1  0
  9 30  1  0
 10 31  1  0
 11 32  1  0
 12 33  1  0
M  RAD  1  14   3
M  END
$$$$
