
     RDKit          3D

 33 33  0  0  0  0  0  0  0  0999 V2000
   -2.7278   -1.8708   -0.3582 C   0  0  0  0  0  0  0  0  0  0  0  0
   -2.7511   -0.0803    0.1734 Si  0  0  0  0  0  4  0  0  0  0  0  0
   -2.6343    0.0180    2.0351 C   0  0  0  0  0  0  0  0  0  0  0  0
   -4.3574    0.6954   -0.3759 C   0  0  0  0  0  0  0  0  0  0  0  0
   -1.3282    0.8534   -0.6189 C   0  0  0  0  0  0  0  0  0  0  0  0
    0.0264    0.2688   -0.2121 C   0  0  0  0  0  0  0  0  0  0  0  0
    1.1755    1.0437   -0.8652 C   0  0  0  0  0  0  0  0  0  0  0  0
    2.5068    0.4602   -0.4593 C   0  0  0  0  0  0  0  0  0  0  0  0
    3.0928   -0.5432   -1.2508 C   0  0  0  0  0  0  0  0  0  0  0  0
    4.3096   -1.1197   -0.8766 C   0  0  0  0  0  0  0  0  0  0  0  0
    4.9481   -0.7088    0.2950 C   0  0  0  0  0  0  0  0  0  0  0  0
    4.3692    0.2764    1.0984 C   0  0  0  0  0  0  0  0  0  0  0  0
    3.1502    0.8598    0.7319 C   0  0  0  0  0  0  0  0  0  0  0  0
    2.5723    1.8518    1.5778 N   0  0  0  0  0  1  0  0  0  0  0  0
   -3.6189   -2.3882    0.0525 H   0  0  0  0  0  0  0  0  0  0  0  0
   -2.7450   -1.9272   -1.4659 H   0  0  0  0  0  0  0  0  0  0  0  0
   -1.8100   -2.3621    0.0243 H   0  0  0  0  0  0  0  0  0  0  0  0
   -2.5952    1.0818    2.3468 H   0  0  0  0  0  0  0  0  0  0  0  0
   -3.5241   -0.4673    2.4858 H   0  0  0  0  0  0  0  0  0  0  0  0
   -1.7183   -0.5036    2.3800 H   0  0  0  0  0  0  0  0  0  0  0  0
   -5.2072    0.1522    0.0860 H   0  0  0  0  0  0  0  0  0  0  0  0
   -4.3814    1.7583   -0.0592 H   0  0  0  0  0  0  0  0  0  0  0  0
   -4.4370    0.6365   -1.4808 H   0  0  0  0  0  0  0  0  0  0  0  0
   -1.4486    0.7991   -1.7218 H   0  0  0  0  0  0  0  0  0  0  0  0
   -1.3923    1.9165   -0.3032 H   0  0  0  0  0  0  0  0  0  0  0  0
    0.0808   -0.7962   -0.5276 H   0  0  0  0  0  0  0  0  0  0  0  0
    0.1342    0.3183    0.8933 H   0  0  0  0  0  0  0  0  0  0  0  0
    1.0685    1.0046   -1.9719 H   0  0  0  0  0  0  0  0  0  0  0  0
    1.1238    2.1154   -0.5744 H   0  0  0  0  0  0  0  0  0  0  0  0
    2.6059   -0.8805   -2.1576 H   0  0  0  0  0  0  0  0  0  0  0  0
    4.7560   -1.8885   -1.4941 H   0  0  0  0  0  0  0  0  0  0  0  0
    5.8898   -1.1576    0.5836 H   0  0  0  0  0  0  0  0  0  0  0  0
    4.8671    0.5839    2.0095 H   0  0  0  0  0  0  0  0  0  0  0  0
  1  2  1  0
  2  3  1  0
  2  4  1  0
  2  5  1  0
  5  6  1  0
  6  7  1  0
  7  8  1  0
  8  9  2  0
  9 10  1  0
 10 11  2  0
 11 12  1  0
 12 13  2  0
 13 14  1  0
 13  8  1  0
  1 15  1  0
  1 16  1  0
  1 17  1  0
  3 18  1  0
  3 19  1  0
  3 20  1  0
  4 21  1  0
  4 22  1  0
  4 23  1  0
  5 24  1  0
  5 25  1  0
  6 26  1  0
  6 27  1  0
  7 28  1  0
  7 29  1  0
  9 30  1  0
 10 31  1  0
 11 32  1  0
 12 33  1  0
M  RAD  1  14   3
M  END
$$$$
