
     RDKit          3D

 33 33  0  0  0  0  0  0  0  0999 V2000
    3.5003   -0.6667   -1.3605 C   0  0  0  0  0  0  0  0  0  0  0  0
    2.3453    0.3205   -0.2737 Si  0  0  0  0  0  4  0  0  0  0  0  0
    2.4377   -0.3408    1.4703 C   0  0  0  0  0  0  0  0  0  0  0  0
    2.9114    2.0991   -0.2646 C   0  0  0  0  0  0  0  0  0  0  0  0
    0.6003    0.2617   -0.9809 C   0  0  0  0  0  0  0  0  0  0  0  0
   -0.0365   -1.1387   -0.9451 C   0  0  0  0  0  0  0  0  0  0  0  0
   -0.8155   -1.4312    0.3494 C   0  0  0  0  0  0  0  0  0  0  0  0
   -2.0870   -0.6170    0.4486 C   0  0  0  0  0  0  0  0  0  0  0  0
   -3.1903   -0.9700   -0.3490 C   0  0  0  0  0  0  0  0  0  0  0  0
   -4.3736   -0.2293   -0.2916 C   0  0  0  0  0  0  0  0  0  0  0  0
   -4.4695    0.8715    0.5611 C   0  0  0  0  0  0  0  0  0  0  0  0
   -3.3825    1.2341    1.3595 C   0  0  0  0  0  0  0  0  0  0  0  0
   -2.1922    0.4983    1.3098 C   0  0  0  0  0  0  0  0  0  0  0  0
   -1.1005    0.8941    2.1372 N   0  0  0  0  0  1  0  0  0  0  0  0
    4.5396   -0.5562   -0.9887 H   0  0  0  0  0  0  0  0  0  0  0  0
    3.4387   -0.2905   -2.4021 H   0  0  0  0  0  0  0  0  0  0  0  0
    3.2141   -1.7378   -1.3358 H   0  0  0  0  0  0  0  0  0  0  0  0
    3.4615   -0.1824    1.8667 H   0  0  0  0  0  0  0  0  0  0  0  0
    1.7100    0.1960    2.1119 H   0  0  0  0  0  0  0  0  0  0  0  0
    2.2143   -1.4271    1.4701 H   0  0  0  0  0  0  0  0  0  0  0  0
    3.9473    2.1556    0.1282 H   0  0  0  0  0  0  0  0  0  0  0  0
    2.2370    2.6972    0.3821 H   0  0  0  0  0  0  0  0  0  0  0  0
    2.8849    2.5005   -1.2983 H   0  0  0  0  0  0  0  0  0  0  0  0
    0.6799    0.5876   -2.0396 H   0  0  0  0  0  0  0  0  0  0  0  0
   -0.0309    1.0082   -0.4584 H   0  0  0  0  0  0  0  0  0  0  0  0
   -0.7293   -1.2371   -1.8092 H   0  0  0  0  0  0  0  0  0  0  0  0
    0.7429   -1.9181   -1.0837 H   0  0  0  0  0  0  0  0  0  0  0  0
   -0.1685   -1.2767    1.2342 H   0  0  0  0  0  0  0  0  0  0  0  0
   -1.0871   -2.5093    0.3572 H   0  0  0  0  0  0  0  0  0  0  0  0
   -3.1325   -1.8205   -1.0171 H   0  0  0  0  0  0  0  0  0  0  0  0
   -5.2169   -0.5089   -0.9098 H   0  0  0  0  0  0  0  0  0  0  0  0
   -5.3869    1.4443    0.6038 H   0  0  0  0  0  0  0  0  0  0  0  0
   -3.4656    2.0896    2.0182 H   0  0  0  0  0  0  0  0  0  0  0  0
  1  2  1  0
  2  3  1  0
  2  4  1  0
  2  5  1  0
  5  6  1  0
  6  7  1  0
  7  8  1  0
  8  9  2  0
  9 10  1  0
 10 11  2  0
 11 12  1  0
 12 13  2  0
 13 14  1  0
 13  8  1  0
  1 15  1  0
  1 16  1  0
  1 17  1  0
  3 18  1  0
  3 19  1  0
  3 20  1  0
  4 21  1  0
  4 22  1  0
  4 23  1  0
  5 24  1  0
  5 25  1  0
  6 26  1  0
  6 27  1  0
  7 28  1  0
  7 29  1  0
  9 30  1  0
 10 31  1  0
 11 32  1  0
 12 33  1  0
M  RAD  1  14   3
M  END
$$$$
