
     RDKit          3D

 33 33  0  0  0  0  0  0  0  0999 V2000
   -2.8939   -1.5725   -0.4709 C   0  0  0  0  0  0  0  0  0  0  0  0
   -2.7489    0.2094    0.0701 Si  0  0  0  0  0  4  0  0  0  0  0  0
   -2.6928    0.2913    1.9354 C   0  0  0  0  0  0  0  0  0  0  0  0
   -4.2428    1.1510   -0.5343 C   0  0  0  0  0  0  0  0  0  0  0  0
   -1.2068    0.9896   -0.6630 C   0  0  0  0  0  0  0  0  0  0  0  0
    0.0625    0.2649   -0.2094 C   0  0  0  0  0  0  0  0  0  0  0  0
    1.3106    0.9158   -0.8145 C   0  0  0  0  0  0  0  0  0  0  0  0
    2.5569    0.1946   -0.3626 C   0  0  0  0  0  0  0  0  0  0  0  0
    3.0636   -0.8634   -1.1376 C   0  0  0  0  0  0  0  0  0  0  0  0
    4.1980   -1.5655   -0.7216 C   0  0  0  0  0  0  0  0  0  0  0  0
    4.8315   -1.2263    0.4755 C   0  0  0  0  0  0  0  0  0  0  0  0
    4.3294   -0.1872    1.2625 C   0  0  0  0  0  0  0  0  0  0  0  0
    3.1932    0.5219    0.8542 C   0  0  0  0  0  0  0  0  0  0  0  0
    2.6913    1.5677    1.6837 N   0  0  0  0  0  1  0  0  0  0  0  0
   -2.0479   -2.1584   -0.0573 H   0  0  0  0  0  0  0  0  0  0  0  0
   -3.8494   -1.9940   -0.0968 H   0  0  0  0  0  0  0  0  0  0  0  0
   -2.8751   -1.6247   -1.5787 H   0  0  0  0  0  0  0  0  0  0  0  0
   -1.8503   -0.3245    2.3111 H   0  0  0  0  0  0  0  0  0  0  0  0
   -2.5539    1.3445    2.2546 H   0  0  0  0  0  0  0  0  0  0  0  0
   -3.6451   -0.0985    2.3496 H   0  0  0  0  0  0  0  0  0  0  0  0
   -4.1669    2.2099   -0.2125 H   0  0  0  0  0  0  0  0  0  0  0  0
   -4.2864    1.1029   -1.6417 H   0  0  0  0  0  0  0  0  0  0  0  0
   -5.1619    0.6994   -0.1077 H   0  0  0  0  0  0  0  0  0  0  0  0
   -1.1706    2.0530   -0.3437 H   0  0  0  0  0  0  0  0  0  0  0  0
   -1.2905    0.9505   -1.7700 H   0  0  0  0  0  0  0  0  0  0  0  0
    0.0165   -0.7992   -0.5289 H   0  0  0  0  0  0  0  0  0  0  0  0
    0.1331    0.3007    0.8996 H   0  0  0  0  0  0  0  0  0  0  0  0
    1.3609    1.9865   -0.5195 H   0  0  0  0  0  0  0  0  0  0  0  0
    1.2419    0.8903   -1.9246 H   0  0  0  0  0  0  0  0  0  0  0  0
    2.5785   -1.1458   -2.0639 H   0  0  0  0  0  0  0  0  0  0  0  0
    4.5841   -2.3758   -1.3264 H   0  0  0  0  0  0  0  0  0  0  0  0
    5.7092   -1.7724    0.7964 H   0  0  0  0  0  0  0  0  0  0  0  0
    4.8221    0.0644    2.1934 H   0  0  0  0  0  0  0  0  0  0  0  0
  1  2  1  0
  2  3  1  0
  2  4  1  0
  2  5  1  0
  5  6  1  0
  6  7  1  0
  7  8  1  0
  8  9  2  0
  9 10  1  0
 10 11  2  0
 11 12  1  0
 12 13  2  0
 13 14  1  0
 13  8  1  0
  1 15  1  0
  1 16  1  0
  1 17  1  0
  3 18  1  0
  3 19  1  0
  3 20  1  0
  4 21  1  0
  4 22  1  0
  4 23  1  0
  5 24  1  0
  5 25  1  0
  6 26  1  0
  6 27  1  0
  7 28  1  0
  7 29  1  0
  9 30  1  0
 10 31  1  0
 11 32  1  0
 12 33  1  0
M  RAD  1  14   3
M  END
$$$$
