
     RDKit          3D

 33 33  0  0  0  0  0  0  0  0999 V2000
    2.5379    1.2300    1.7652 C   0  0  0  0  0  0  0  0  0  0  0  0
    2.7375    0.2906    0.1630 Si  0  0  0  0  0  4  0  0  0  0  0  0
    2.6934    1.4877   -1.2702 C   0  0  0  0  0  0  0  0  0  0  0  0
    4.3865   -0.5839    0.1733 C   0  0  0  0  0  0  0  0  0  0  0  0
    1.3766   -0.9900   -0.0156 C   0  0  0  0  0  0  0  0  0  0  0  0
   -0.0098   -0.3419   -0.0303 C   0  0  0  0  0  0  0  0  0  0  0  0
   -1.1075   -1.4004   -0.1791 C   0  0  0  0  0  0  0  0  0  0  0  0
   -2.4705   -0.7527   -0.1920 C   0  0  0  0  0  0  0  0  0  0  0  0
   -3.1696   -0.5875    1.0165 C   0  0  0  0  0  0  0  0  0  0  0  0
   -4.4191    0.0381    1.0318 C   0  0  0  0  0  0  0  0  0  0  0  0
   -4.9785    0.5139   -0.1557 C   0  0  0  0  0  0  0  0  0  0  0  0
   -4.2875    0.3698   -1.3612 C   0  0  0  0  0  0  0  0  0  0  0  0
   -3.0350   -0.2554   -1.3865 C   0  0  0  0  0  0  0  0  0  0  0  0
   -2.3430   -0.3754   -2.6276 N   0  0  0  0  0  1  0  0  0  0  0  0
    2.5122    0.5140    2.6121 H   0  0  0  0  0  0  0  0  0  0  0  0
    3.3932    1.9245    1.8936 H   0  0  0  0  0  0  0  0  0  0  0  0
    1.5938    1.8115    1.7420 H   0  0  0  0  0  0  0  0  0  0  0  0
    3.5518    2.1860   -1.1929 H   0  0  0  0  0  0  0  0  0  0  0  0
    2.7593    0.9245   -2.2236 H   0  0  0  0  0  0  0  0  0  0  0  0
    1.7472    2.0657   -1.2452 H   0  0  0  0  0  0  0  0  0  0  0  0
    4.5151   -1.1403   -0.7777 H   0  0  0  0  0  0  0  0  0  0  0  0
    5.2002    0.1627    0.2783 H   0  0  0  0  0  0  0  0  0  0  0  0
    4.4228   -1.2935    1.0252 H   0  0  0  0  0  0  0  0  0  0  0  0
    1.5451   -1.5457   -0.9625 H   0  0  0  0  0  0  0  0  0  0  0  0
    1.4540   -1.7000    0.8352 H   0  0  0  0  0  0  0  0  0  0  0  0
   -0.0749    0.3737   -0.8787 H   0  0  0  0  0  0  0  0  0  0  0  0
   -0.1689    0.2156    0.9186 H   0  0  0  0  0  0  0  0  0  0  0  0
   -0.9513   -1.9799   -1.1149 H   0  0  0  0  0  0  0  0  0  0  0  0
   -1.0422   -2.1245    0.6629 H   0  0  0  0  0  0  0  0  0  0  0  0
   -2.7457   -0.9421    1.9480 H   0  0  0  0  0  0  0  0  0  0  0  0
   -4.9526    0.1572    1.9660 H   0  0  0  0  0  0  0  0  0  0  0  0
   -5.9457    0.9993   -0.1414 H   0  0  0  0  0  0  0  0  0  0  0  0
   -4.7249    0.7486   -2.2765 H   0  0  0  0  0  0  0  0  0  0  0  0
  1  2  1  0
  2  3  1  0
  2  4  1  0
  2  5  1  0
  5  6  1  0
  6  7  1  0
  7  8  1  0
  8  9  2  0
  9 10  1  0
 10 11  2  0
 11 12  1  0
 12 13  2  0
 13 14  1  0
 13  8  1  0
  1 15  1  0
  1 16  1  0
  1 17  1  0
  3 18  1  0
  3 19  1  0
  3 20  1  0
  4 21  1  0
  4 22  1  0
  4 23  1  0
  5 24  1  0
  5 25  1  0
  6 26  1  0
  6 27  1  0
  7 28  1  0
  7 29  1  0
  9 30  1  0
 10 31  1  0
 11 32  1  0
 12 33  1  0
M  RAD  1  14   3
M  END
$$$$
