
     RDKit          3D

 33 33  0  0  0  0  0  0  0  0999 V2000
   -2.4343   -2.1166   -0.6918 C   0  0  0  0  0  0  0  0  0  0  0  0
   -2.7147   -0.3272   -0.2351 Si  0  0  0  0  0  4  0  0  0  0  0  0
   -2.9724   -0.1885    1.6098 C   0  0  0  0  0  0  0  0  0  0  0  0
   -4.2436    0.2903   -1.1098 C   0  0  0  0  0  0  0  0  0  0  0  0
   -1.2503    0.7190   -0.7689 C   0  0  0  0  0  0  0  0  0  0  0  0
    0.0441    0.2666   -0.0890 C   0  0  0  0  0  0  0  0  0  0  0  0
    1.2276    1.1320   -0.5338 C   0  0  0  0  0  0  0  0  0  0  0  0
    2.4992    0.6786    0.1408 C   0  0  0  0  0  0  0  0  0  0  0  0
    3.3125   -0.2801   -0.4887 C   0  0  0  0  0  0  0  0  0  0  0  0
    4.4778   -0.7375    0.1324 C   0  0  0  0  0  0  0  0  0  0  0  0
    4.8377   -0.2512    1.3907 C   0  0  0  0  0  0  0  0  0  0  0  0
    4.0305    0.6902    2.0338 C   0  0  0  0  0  0  0  0  0  0  0  0
    2.8609    1.1543    1.4196 C   0  0  0  0  0  0  0  0  0  0  0  0
    2.0459    2.1033    2.1043 N   0  0  0  0  0  1  0  0  0  0  0  0
   -1.5699   -2.5161   -0.1231 H   0  0  0  0  0  0  0  0  0  0  0  0
   -3.3405   -2.7061   -0.4435 H   0  0  0  0  0  0  0  0  0  0  0  0
   -2.2300   -2.1923   -1.7794 H   0  0  0  0  0  0  0  0  0  0  0  0
   -3.0866    0.8794    1.8872 H   0  0  0  0  0  0  0  0  0  0  0  0
   -3.8880   -0.7452    1.8963 H   0  0  0  0  0  0  0  0  0  0  0  0
   -2.0999   -0.6190    2.1422 H   0  0  0  0  0  0  0  0  0  0  0  0
   -4.1007    0.2065   -2.2066 H   0  0  0  0  0  0  0  0  0  0  0  0
   -5.1173   -0.3203   -0.8025 H   0  0  0  0  0  0  0  0  0  0  0  0
   -4.4202    1.3516   -0.8396 H   0  0  0  0  0  0  0  0  0  0  0  0
   -1.1480    0.6361   -1.8719 H   0  0  0  0  0  0  0  0  0  0  0  0
   -1.4659    1.7768   -0.5074 H   0  0  0  0  0  0  0  0  0  0  0  0
   -0.0706    0.3436    1.0141 H   0  0  0  0  0  0  0  0  0  0  0  0
    0.2504   -0.7940   -0.3522 H   0  0  0  0  0  0  0  0  0  0  0  0
    1.3424    1.0654   -1.6383 H   0  0  0  0  0  0  0  0  0  0  0  0
    1.0282    2.1992   -0.2946 H   0  0  0  0  0  0  0  0  0  0  0  0
    3.0427   -0.6749   -1.4605 H   0  0  0  0  0  0  0  0  0  0  0  0
    5.1006   -1.4724   -0.3611 H   0  0  0  0  0  0  0  0  0  0  0  0
    5.7400   -0.6079    1.8705 H   0  0  0  0  0  0  0  0  0  0  0  0
    4.3127    1.0564    3.0130 H   0  0  0  0  0  0  0  0  0  0  0  0
  1  2  1  0
  2  3  1  0
  2  4  1  0
  2  5  1  0
  5  6  1  0
  6  7  1  0
  7  8  1  0
  8  9  2  0
  9 10  1  0
 10 11  2  0
 11 12  1  0
 12 13  2  0
 13 14  1  0
 13  8  1  0
  1 15  1  0
  1 16  1  0
  1 17  1  0
  3 18  1  0
  3 19  1  0
  3 20  1  0
  4 21  1  0
  4 22  1  0
  4 23  1  0
  5 24  1  0
  5 25  1  0
  6 26  1  0
  6 27  1  0
  7 28  1  0
  7 29  1  0
  9 30  1  0
 10 31  1  0
 11 32  1  0
 12 33  1  0
M  RAD  1  14   3
M  END
$$$$
