
     RDKit          3D

 33 33  0  0  0  0  0  0  0  0999 V2000
   -2.4268   -2.1604    0.7782 C   0  0  0  0  0  0  0  0  0  0  0  0
   -2.7098   -0.5039   -0.0375 Si  0  0  0  0  0  4  0  0  0  0  0  0
   -4.4124    0.1127    0.4150 C   0  0  0  0  0  0  0  0  0  0  0  0
   -2.6066   -0.6976   -1.8924 C   0  0  0  0  0  0  0  0  0  0  0  0
   -1.4386    0.7418    0.5594 C   0  0  0  0  0  0  0  0  0  0  0  0
   -0.0131    0.3002    0.2201 C   0  0  0  0  0  0  0  0  0  0  0  0
    1.0108    1.3264    0.7163 C   0  0  0  0  0  0  0  0  0  0  0  0
    2.4130    0.8832    0.3769 C   0  0  0  0  0  0  0  0  0  0  0  0
    2.9935    1.2928   -0.8363 C   0  0  0  0  0  0  0  0  0  0  0  0
    4.2785    0.8684   -1.1850 C   0  0  0  0  0  0  0  0  0  0  0  0
    4.9923    0.0238   -0.3327 C   0  0  0  0  0  0  0  0  0  0  0  0
    4.4212   -0.4028    0.8686 C   0  0  0  0  0  0  0  0  0  0  0  0
    3.1342    0.0169    1.2265 C   0  0  0  0  0  0  0  0  0  0  0  0
    2.5675   -0.4459    2.4506 N   0  0  0  0  0  1  0  0  0  0  0  0
   -3.2332   -2.8606    0.4784 H   0  0  0  0  0  0  0  0  0  0  0  0
   -2.4360   -2.0354    1.8804 H   0  0  0  0  0  0  0  0  0  0  0  0
   -1.4472   -2.5712    0.4594 H   0  0  0  0  0  0  0  0  0  0  0  0
   -5.1737   -0.6154    0.0674 H   0  0  0  0  0  0  0  0  0  0  0  0
   -4.4836    0.2256    1.5162 H   0  0  0  0  0  0  0  0  0  0  0  0
   -4.5904    1.0944   -0.0700 H   0  0  0  0  0  0  0  0  0  0  0  0
   -3.4156   -1.3737   -2.2373 H   0  0  0  0  0  0  0  0  0  0  0  0
   -1.6239   -1.1312   -2.1686 H   0  0  0  0  0  0  0  0  0  0  0  0
   -2.7231    0.2947   -2.3742 H   0  0  0  0  0  0  0  0  0  0  0  0
   -1.6573    1.7189    0.0783 H   0  0  0  0  0  0  0  0  0  0  0  0
   -1.5497    0.8511    1.6593 H   0  0  0  0  0  0  0  0  0  0  0  0
    0.1937   -0.6824    0.6975 H   0  0  0  0  0  0  0  0  0  0  0  0
    0.0886    0.1890   -0.8816 H   0  0  0  0  0  0  0  0  0  0  0  0
    0.8039    2.3142    0.2481 H   0  0  0  0  0  0  0  0  0  0  0  0
    0.9090    1.4631    1.8148 H   0  0  0  0  0  0  0  0  0  0  0  0
    2.4497    1.9400   -1.5134 H   0  0  0  0  0  0  0  0  0  0  0  0
    4.7198    1.1920   -2.1189 H   0  0  0  0  0  0  0  0  0  0  0  0
    5.9869   -0.3047   -0.6054 H   0  0  0  0  0  0  0  0  0  0  0  0
    4.9785   -1.0641    1.5203 H   0  0  0  0  0  0  0  0  0  0  0  0
  1  2  1  0
  2  3  1  0
  2  4  1  0
  2  5  1  0
  5  6  1  0
  6  7  1  0
  7  8  1  0
  8  9  2  0
  9 10  1  0
 10 11  2  0
 11 12  1  0
 12 13  2  0
 13 14  1  0
 13  8  1  0
  1 15  1  0
  1 16  1  0
  1 17  1  0
  3 18  1  0
  3 19  1  0
  3 20  1  0
  4 21  1  0
  4 22  1  0
  4 23  1  0
  5 24  1  0
  5 25  1  0
  6 26  1  0
  6 27  1  0
  7 28  1  0
  7 29  1  0
  9 30  1  0
 10 31  1  0
 11 32  1  0
 12 33  1  0
M  RAD  1  14   3
M  END
$$$$
