
     RDKit          3D

 33 34  0  0  0  0  0  0  0  0999 V2000
    3.6074    1.5883   -1.7252 C   0  0  0  0  0  0  0  0  0  0  0  0
    2.4314    0.6675   -1.5935 C   0  0  0  0  0  0  0  0  0  0  0  0
    1.7633    0.3985   -2.6290 O   0  0  0  0  0  0  0  0  0  0  0  0
    2.0387    0.0749   -0.2862 C   0  0  0  0  0  0  0  0  0  0  0  0
    2.7522    0.3638    0.8919 C   0  0  0  0  0  0  0  0  0  0  0  0
    2.3592   -0.1869    2.1133 C   0  0  0  0  0  0  0  0  0  0  0  0
    1.2506   -1.0338    2.1846 C   0  0  0  0  0  0  0  0  0  0  0  0
    0.8619   -1.5655    3.4494 N   0  0  0  0  0  1  0  0  0  0  0  0
    0.5288   -1.3468    1.0168 C   0  0  0  0  0  0  0  0  0  0  0  0
   -0.7091   -2.2136    1.0696 C   0  0  0  0  0  0  0  0  0  0  0  0
   -1.9520   -1.4087    1.4758 C   0  0  0  0  0  0  0  0  0  0  0  0
   -2.2857   -0.3452    0.4603 C   0  0  0  0  0  0  0  0  0  0  0  0
   -2.9669   -0.6839   -0.7206 C   0  0  0  0  0  0  0  0  0  0  0  0
   -3.2282    0.2920   -1.6873 C   0  0  0  0  0  0  0  0  0  0  0  0
   -2.8055    1.6088   -1.4858 C   0  0  0  0  0  0  0  0  0  0  0  0
   -2.1202    1.9521   -0.3173 C   0  0  0  0  0  0  0  0  0  0  0  0
   -1.8587    0.9800    0.6529 C   0  0  0  0  0  0  0  0  0  0  0  0
    0.9280   -0.7859   -0.2090 C   0  0  0  0  0  0  0  0  0  0  0  0
    4.5336    1.0652   -1.4076 H   0  0  0  0  0  0  0  0  0  0  0  0
    3.4520    2.4903   -1.0970 H   0  0  0  0  0  0  0  0  0  0  0  0
    3.7323    1.9129   -2.7803 H   0  0  0  0  0  0  0  0  0  0  0  0
    3.6123    1.0194    0.8797 H   0  0  0  0  0  0  0  0  0  0  0  0
    2.9168    0.0526    3.0103 H   0  0  0  0  0  0  0  0  0  0  0  0
   -0.8853   -2.6986    0.0841 H   0  0  0  0  0  0  0  0  0  0  0  0
   -0.5583   -3.0390    1.7982 H   0  0  0  0  0  0  0  0  0  0  0  0
   -1.7949   -0.9532    2.4781 H   0  0  0  0  0  0  0  0  0  0  0  0
   -2.8135   -2.1046    1.5732 H   0  0  0  0  0  0  0  0  0  0  0  0
   -3.2878   -1.7036   -0.8942 H   0  0  0  0  0  0  0  0  0  0  0  0
   -3.7538    0.0262   -2.5954 H   0  0  0  0  0  0  0  0  0  0  0  0
   -3.0055    2.3621   -2.2367 H   0  0  0  0  0  0  0  0  0  0  0  0
   -1.7868    2.9705   -0.1655 H   0  0  0  0  0  0  0  0  0  0  0  0
   -1.3130    1.2563    1.5467 H   0  0  0  0  0  0  0  0  0  0  0  0
    0.3566   -1.0121   -1.1014 H   0  0  0  0  0  0  0  0  0  0  0  0
  1  2  1  0
  2  3  2  0
  2  4  1  0
  4  5  1  0
  5  6  2  0
  6  7  1  0
  7  8  1  0
  7  9  2  0
  9 10  1  0
 10 11  1  0
 11 12  1  0
 12 13  2  0
 13 14  1  0
 14 15  2  0
 15 16  1  0
 16 17  2  0
  9 18  1  0
 18  4  2  0
 17 12  1  0
  1 19  1  0
  1 20  1  0
  1 21  1  0
  5 22  1  0
  6 23  1  0
 10 24  1  0
 10 25  1  0
 11 26  1  0
 11 27  1  0
 13 28  1  0
 14 29  1  0
 15 30  1  0
 16 31  1  0
 17 32  1  0
 18 33  1  0
M  RAD  1   8   3
M  END
$$$$
