
     RDKit          3D

 33 34  0  0  0  0  0  0  0  0999 V2000
   -5.5180   -0.6474   -1.1607 C   0  0  0  0  0  0  0  0  0  0  0  0
   -4.0614   -0.9857   -1.0479 C   0  0  0  0  0  0  0  0  0  0  0  0
   -3.6191   -1.9567   -1.7204 O   0  0  0  0  0  0  0  0  0  0  0  0
   -3.1393   -0.2123   -0.1722 C   0  0  0  0  0  0  0  0  0  0  0  0
   -3.5988    0.8764    0.5924 C   0  0  0  0  0  0  0  0  0  0  0  0
   -2.7188    1.5974    1.4017 C   0  0  0  0  0  0  0  0  0  0  0  0
   -1.3686    1.2456    1.4691 C   0  0  0  0  0  0  0  0  0  0  0  0
   -0.4910    2.0115    2.2920 N   0  0  0  0  0  1  0  0  0  0  0  0
   -0.8896    0.1494    0.7256 C   0  0  0  0  0  0  0  0  0  0  0  0
    0.5698   -0.2354    0.7512 C   0  0  0  0  0  0  0  0  0  0  0  0
    1.3552    0.5592   -0.2965 C   0  0  0  0  0  0  0  0  0  0  0  0
    2.8104    0.1762   -0.2695 C   0  0  0  0  0  0  0  0  0  0  0  0
    3.7029    0.8432    0.5865 C   0  0  0  0  0  0  0  0  0  0  0  0
    5.0481    0.4642    0.6346 C   0  0  0  0  0  0  0  0  0  0  0  0
    5.5087   -0.5874   -0.1625 C   0  0  0  0  0  0  0  0  0  0  0  0
    4.6239   -1.2648   -1.0061 C   0  0  0  0  0  0  0  0  0  0  0  0
    3.2778   -0.8891   -1.0573 C   0  0  0  0  0  0  0  0  0  0  0  0
   -1.7775   -0.5622   -0.0994 C   0  0  0  0  0  0  0  0  0  0  0  0
   -5.6361    0.3877   -1.5443 H   0  0  0  0  0  0  0  0  0  0  0  0
   -6.0263   -1.3418   -1.8632 H   0  0  0  0  0  0  0  0  0  0  0  0
   -6.0039   -0.7366   -0.1666 H   0  0  0  0  0  0  0  0  0  0  0  0
   -4.6363    1.1810    0.5672 H   0  0  0  0  0  0  0  0  0  0  0  0
   -3.0893    2.4371    1.9765 H   0  0  0  0  0  0  0  0  0  0  0  0
    0.6770   -1.3242    0.5486 H   0  0  0  0  0  0  0  0  0  0  0  0
    0.9961   -0.0542    1.7621 H   0  0  0  0  0  0  0  0  0  0  0  0
    0.9334    0.3648   -1.3075 H   0  0  0  0  0  0  0  0  0  0  0  0
    1.2503    1.6490   -0.0992 H   0  0  0  0  0  0  0  0  0  0  0  0
    3.3564    1.6534    1.2161 H   0  0  0  0  0  0  0  0  0  0  0  0
    5.7328    0.9836    1.2926 H   0  0  0  0  0  0  0  0  0  0  0  0
    6.5499   -0.8803   -0.1230 H   0  0  0  0  0  0  0  0  0  0  0  0
    4.9803   -2.0834   -1.6179 H   0  0  0  0  0  0  0  0  0  0  0  0
    2.6004   -1.4281   -1.7081 H   0  0  0  0  0  0  0  0  0  0  0  0
   -1.3996   -1.3906   -0.6868 H   0  0  0  0  0  0  0  0  0  0  0  0
  1  2  1  0
  2  3  2  0
  2  4  1  0
  4  5  1  0
  5  6  2  0
  6  7  1  0
  7  8  1  0
  7  9  2  0
  9 10  1  0
 10 11  1  0
 11 12  1  0
 12 13  2  0
 13 14  1  0
 14 15  2  0
 15 16  1  0
 16 17  2  0
  9 18  1  0
 18  4  2  0
 17 12  1  0
  1 19  1  0
  1 20  1  0
  1 21  1  0
  5 22  1  0
  6 23  1  0
 10 24  1  0
 10 25  1  0
 11 26  1  0
 11 27  1  0
 13 28  1  0
 14 29  1  0
 15 30  1  0
 16 31  1  0
 17 32  1  0
 18 33  1  0
M  RAD  1   8   3
M  END
$$$$
