
     RDKit          3D

 33 34  0  0  0  0  0  0  0  0999 V2000
    2.1631    1.7173    1.8130 C   0  0  0  0  0  0  0  0  0  0  0  0
    2.6298    0.3004    1.6583 C   0  0  0  0  0  0  0  0  0  0  0  0
    3.4985   -0.1360    2.4618 O   0  0  0  0  0  0  0  0  0  0  0  0
    2.0980   -0.5894    0.5917 C   0  0  0  0  0  0  0  0  0  0  0  0
    2.4302   -1.9556    0.5837 C   0  0  0  0  0  0  0  0  0  0  0  0
    1.9074   -2.8088   -0.3900 C   0  0  0  0  0  0  0  0  0  0  0  0
    1.0454   -2.3167   -1.3732 C   0  0  0  0  0  0  0  0  0  0  0  0
    0.5032   -3.2171   -2.3368 N   0  0  0  0  0  1  0  0  0  0  0  0
    0.7160   -0.9477   -1.3979 C   0  0  0  0  0  0  0  0  0  0  0  0
   -0.2623   -0.3935   -2.4092 C   0  0  0  0  0  0  0  0  0  0  0  0
   -1.7162   -0.5545   -1.9411 C   0  0  0  0  0  0  0  0  0  0  0  0
   -1.9877    0.2312   -0.6826 C   0  0  0  0  0  0  0  0  0  0  0  0
   -2.2020    1.6180   -0.7474 C   0  0  0  0  0  0  0  0  0  0  0  0
   -2.3837    2.3581    0.4250 C   0  0  0  0  0  0  0  0  0  0  0  0
   -2.3465    1.7213    1.6685 C   0  0  0  0  0  0  0  0  0  0  0  0
   -2.1285    0.3430    1.7419 C   0  0  0  0  0  0  0  0  0  0  0  0
   -1.9486   -0.4013    0.5722 C   0  0  0  0  0  0  0  0  0  0  0  0
    1.2464   -0.0949   -0.4142 C   0  0  0  0  0  0  0  0  0  0  0  0
    2.4856    2.3172    0.9365 H   0  0  0  0  0  0  0  0  0  0  0  0
    2.5951    2.1718    2.7300 H   0  0  0  0  0  0  0  0  0  0  0  0
    1.0561    1.7441    1.8982 H   0  0  0  0  0  0  0  0  0  0  0  0
    3.0840   -2.3709    1.3404 H   0  0  0  0  0  0  0  0  0  0  0  0
    2.1653   -3.8604   -0.3720 H   0  0  0  0  0  0  0  0  0  0  0  0
   -0.0496    0.6811   -2.6024 H   0  0  0  0  0  0  0  0  0  0  0  0
   -0.1355   -0.9133   -3.3831 H   0  0  0  0  0  0  0  0  0  0  0  0
   -1.9428   -1.6319   -1.7841 H   0  0  0  0  0  0  0  0  0  0  0  0
   -2.3941   -0.1987   -2.7471 H   0  0  0  0  0  0  0  0  0  0  0  0
   -2.2168    2.1254   -1.7040 H   0  0  0  0  0  0  0  0  0  0  0  0
   -2.5466    3.4266    0.3699 H   0  0  0  0  0  0  0  0  0  0  0  0
   -2.4823    2.2965    2.5752 H   0  0  0  0  0  0  0  0  0  0  0  0
   -2.0920   -0.1479    2.7058 H   0  0  0  0  0  0  0  0  0  0  0  0
   -1.7617   -1.4656    0.6447 H   0  0  0  0  0  0  0  0  0  0  0  0
    0.9727    0.9520   -0.4317 H   0  0  0  0  0  0  0  0  0  0  0  0
  1  2  1  0
  2  3  2  0
  2  4  1  0
  4  5  1  0
  5  6  2  0
  6  7  1  0
  7  8  1  0
  7  9  2  0
  9 10  1  0
 10 11  1  0
 11 12  1  0
 12 13  2  0
 13 14  1  0
 14 15  2  0
 15 16  1  0
 16 17  2  0
  9 18  1  0
 18  4  2  0
 17 12  1  0
  1 19  1  0
  1 20  1  0
  1 21  1  0
  5 22  1  0
  6 23  1  0
 10 24  1  0
 10 25  1  0
 11 26  1  0
 11 27  1  0
 13 28  1  0
 14 29  1  0
 15 30  1  0
 16 31  1  0
 17 32  1  0
 18 33  1  0
M  RAD  1   8   3
M  END
$$$$
