
     RDKit          3D

 33 34  0  0  0  0  0  0  0  0999 V2000
   -2.0876    2.1032   -1.4905 C   0  0  0  0  0  0  0  0  0  0  0  0
   -2.6363    0.7086   -1.5477 C   0  0  0  0  0  0  0  0  0  0  0  0
   -3.5441    0.4553   -2.3858 O   0  0  0  0  0  0  0  0  0  0  0  0
   -2.1401   -0.3678   -0.6492 C   0  0  0  0  0  0  0  0  0  0  0  0
   -2.5542   -1.6968   -0.8469 C   0  0  0  0  0  0  0  0  0  0  0  0
   -2.0666   -2.7219   -0.0341 C   0  0  0  0  0  0  0  0  0  0  0  0
   -1.1587   -2.4417    0.9902 C   0  0  0  0  0  0  0  0  0  0  0  0
   -0.6548   -3.5130    1.7852 N   0  0  0  0  0  1  0  0  0  0  0  0
   -0.7467   -1.1150    1.2208 C   0  0  0  0  0  0  0  0  0  0  0  0
    0.2814   -0.7847    2.2794 C   0  0  0  0  0  0  0  0  0  0  0  0
    1.7143   -0.9519    1.7522 C   0  0  0  0  0  0  0  0  0  0  0  0
    2.0100    0.0066    0.6259 C   0  0  0  0  0  0  0  0  0  0  0  0
    2.3090    1.3511    0.9019 C   0  0  0  0  0  0  0  0  0  0  0  0
    2.5140    2.2561   -0.1441 C   0  0  0  0  0  0  0  0  0  0  0  0
    2.4158    1.8277   -1.4707 C   0  0  0  0  0  0  0  0  0  0  0  0
    2.1135    0.4931   -1.7538 C   0  0  0  0  0  0  0  0  0  0  0  0
    1.9101   -0.4157   -0.7111 C   0  0  0  0  0  0  0  0  0  0  0  0
   -1.2422   -0.0882    0.3982 C   0  0  0  0  0  0  0  0  0  0  0  0
   -2.5077    2.7211   -2.3125 H   0  0  0  0  0  0  0  0  0  0  0  0
   -0.9827    2.0802   -1.6008 H   0  0  0  0  0  0  0  0  0  0  0  0
   -2.3573    2.5740   -0.5222 H   0  0  0  0  0  0  0  0  0  0  0  0
   -3.2455   -1.9491   -1.6413 H   0  0  0  0  0  0  0  0  0  0  0  0
   -2.3879   -3.7410   -0.2101 H   0  0  0  0  0  0  0  0  0  0  0  0
    0.1377    0.2561    2.6449 H   0  0  0  0  0  0  0  0  0  0  0  0
    0.1410   -1.4442    3.1626 H   0  0  0  0  0  0  0  0  0  0  0  0
    2.4269   -0.7676    2.5853 H   0  0  0  0  0  0  0  0  0  0  0  0
    1.8724   -2.0020    1.4217 H   0  0  0  0  0  0  0  0  0  0  0  0
    2.3717    1.6988    1.9257 H   0  0  0  0  0  0  0  0  0  0  0  0
    2.7423    3.2914    0.0738 H   0  0  0  0  0  0  0  0  0  0  0  0
    2.5698    2.5307   -2.2791 H   0  0  0  0  0  0  0  0  0  0  0  0
    2.0300    0.1641   -2.7815 H   0  0  0  0  0  0  0  0  0  0  0  0
    1.6578   -1.4427   -0.9449 H   0  0  0  0  0  0  0  0  0  0  0  0
   -0.9053    0.9253    0.5726 H   0  0  0  0  0  0  0  0  0  0  0  0
  1  2  1  0
  2  3  2  0
  2  4  1  0
  4  5  1  0
  5  6  2  0
  6  7  1  0
  7  8  1  0
  7  9  2  0
  9 10  1  0
 10 11  1  0
 11 12  1  0
 12 13  2  0
 13 14  1  0
 14 15  2  0
 15 16  1  0
 16 17  2  0
  9 18  1  0
 18  4  2  0
 17 12  1  0
  1 19  1  0
  1 20  1  0
  1 21  1  0
  5 22  1  0
  6 23  1  0
 10 24  1  0
 10 25  1  0
 11 26  1  0
 11 27  1  0
 13 28  1  0
 14 29  1  0
 15 30  1  0
 16 31  1  0
 17 32  1  0
 18 33  1  0
M  RAD  1   8   3
M  END
$$$$
