
     RDKit          3D

 33 34  0  0  0  0  0  0  0  0999 V2000
    3.5365    2.3899   -0.7472 C   0  0  0  0  0  0  0  0  0  0  0  0
    2.4244    1.7831    0.0548 C   0  0  0  0  0  0  0  0  0  0  0  0
    1.8061    2.5183    0.8722 O   0  0  0  0  0  0  0  0  0  0  0  0
    2.0373    0.3537   -0.0924 C   0  0  0  0  0  0  0  0  0  0  0  0
    2.6954   -0.4922   -1.0044 C   0  0  0  0  0  0  0  0  0  0  0  0
    2.3076   -1.8264   -1.1425 C   0  0  0  0  0  0  0  0  0  0  0  0
    1.2592   -2.3423   -0.3769 C   0  0  0  0  0  0  0  0  0  0  0  0
    0.8731   -3.7035   -0.5541 N   0  0  0  0  0  1  0  0  0  0  0  0
    0.5942   -1.5177    0.5508 C   0  0  0  0  0  0  0  0  0  0  0  0
   -0.5811   -2.0298    1.3526 C   0  0  0  0  0  0  0  0  0  0  0  0
   -1.8882   -1.9723    0.5487 C   0  0  0  0  0  0  0  0  0  0  0  0
   -2.2666   -0.5556    0.1976 C   0  0  0  0  0  0  0  0  0  0  0  0
   -1.9388   -0.0239   -1.0615 C   0  0  0  0  0  0  0  0  0  0  0  0
   -2.2400    1.3074   -1.3638 C   0  0  0  0  0  0  0  0  0  0  0  0
   -2.8667    2.1171   -0.4126 C   0  0  0  0  0  0  0  0  0  0  0  0
   -3.1906    1.5974    0.8437 C   0  0  0  0  0  0  0  0  0  0  0  0
   -2.8891    0.2671    1.1511 C   0  0  0  0  0  0  0  0  0  0  0  0
    0.9876   -0.1745    0.6821 C   0  0  0  0  0  0  0  0  0  0  0  0
    3.6681    3.4610   -0.4834 H   0  0  0  0  0  0  0  0  0  0  0  0
    4.4876    1.8577   -0.5362 H   0  0  0  0  0  0  0  0  0  0  0  0
    3.3010    2.3218   -1.8299 H   0  0  0  0  0  0  0  0  0  0  0  0
    3.5077   -0.1296   -1.6196 H   0  0  0  0  0  0  0  0  0  0  0  0
    2.8215   -2.4602   -1.8545 H   0  0  0  0  0  0  0  0  0  0  0  0
   -0.6952   -1.4437    2.2912 H   0  0  0  0  0  0  0  0  0  0  0  0
   -0.3937   -3.0799    1.6641 H   0  0  0  0  0  0  0  0  0  0  0  0
   -1.7916   -2.5882   -0.3722 H   0  0  0  0  0  0  0  0  0  0  0  0
   -2.7014   -2.4289    1.1539 H   0  0  0  0  0  0  0  0  0  0  0  0
   -1.4390   -0.6358   -1.8023 H   0  0  0  0  0  0  0  0  0  0  0  0
   -1.9830    1.7129   -2.3338 H   0  0  0  0  0  0  0  0  0  0  0  0
   -3.0976    3.1480   -0.6476 H   0  0  0  0  0  0  0  0  0  0  0  0
   -3.6706    2.2272    1.5816 H   0  0  0  0  0  0  0  0  0  0  0  0
   -3.1330   -0.1202    2.1326 H   0  0  0  0  0  0  0  0  0  0  0  0
    0.4588    0.4622    1.3814 H   0  0  0  0  0  0  0  0  0  0  0  0
  1  2  1  0
  2  3  2  0
  2  4  1  0
  4  5  1  0
  5  6  2  0
  6  7  1  0
  7  8  1  0
  7  9  2  0
  9 10  1  0
 10 11  1  0
 11 12  1  0
 12 13  2  0
 13 14  1  0
 14 15  2  0
 15 16  1  0
 16 17  2  0
  9 18  1  0
 18  4  2  0
 17 12  1  0
  1 19  1  0
  1 20  1  0
  1 21  1  0
  5 22  1  0
  6 23  1  0
 10 24  1  0
 10 25  1  0
 11 26  1  0
 11 27  1  0
 13 28  1  0
 14 29  1  0
 15 30  1  0
 16 31  1  0
 17 32  1  0
 18 33  1  0
M  RAD  1   8   3
M  END
$$$$
