
     RDKit          3D

 33 34  0  0  0  0  0  0  0  0999 V2000
   -5.5777   -1.0378    0.0963 C   0  0  0  0  0  0  0  0  0  0  0  0
   -4.1428   -1.1235   -0.3309 C   0  0  0  0  0  0  0  0  0  0  0  0
   -3.7814   -2.1180   -1.0173 O   0  0  0  0  0  0  0  0  0  0  0  0
   -3.1498   -0.0757    0.0317 C   0  0  0  0  0  0  0  0  0  0  0  0
   -3.5183    1.0475    0.7955 C   0  0  0  0  0  0  0  0  0  0  0  0
   -2.5725    2.0167    1.1350 C   0  0  0  0  0  0  0  0  0  0  0  0
   -1.2458    1.8890    0.7169 C   0  0  0  0  0  0  0  0  0  0  0  0
   -0.2991    2.8869    1.0935 N   0  0  0  0  0  1  0  0  0  0  0  0
   -0.8576    0.7818   -0.0625 C   0  0  0  0  0  0  0  0  0  0  0  0
    0.5748    0.5980   -0.5018 C   0  0  0  0  0  0  0  0  0  0  0  0
    1.3792   -0.1354    0.5756 C   0  0  0  0  0  0  0  0  0  0  0  0
    2.8075   -0.3169    0.1378 C   0  0  0  0  0  0  0  0  0  0  0  0
    3.7637    0.6758    0.4102 C   0  0  0  0  0  0  0  0  0  0  0  0
    5.0833    0.5209   -0.0261 C   0  0  0  0  0  0  0  0  0  0  0  0
    5.4544   -0.6192   -0.7444 C   0  0  0  0  0  0  0  0  0  0  0  0
    4.5055   -1.6045   -1.0313 C   0  0  0  0  0  0  0  0  0  0  0  0
    3.1849   -1.4535   -0.5969 C   0  0  0  0  0  0  0  0  0  0  0  0
   -1.8112   -0.1983   -0.3873 C   0  0  0  0  0  0  0  0  0  0  0  0
   -6.0405   -0.1183   -0.3190 H   0  0  0  0  0  0  0  0  0  0  0  0
   -6.1481   -1.9160   -0.2748 H   0  0  0  0  0  0  0  0  0  0  0  0
   -5.6409   -1.0218    1.2045 H   0  0  0  0  0  0  0  0  0  0  0  0
   -4.5348    1.1826    1.1393 H   0  0  0  0  0  0  0  0  0  0  0  0
   -2.8732    2.8699    1.7304 H   0  0  0  0  0  0  0  0  0  0  0  0
    1.0396    1.5852   -0.7155 H   0  0  0  0  0  0  0  0  0  0  0  0
    0.6075    0.0165   -1.4499 H   0  0  0  0  0  0  0  0  0  0  0  0
    1.3485    0.4413    1.5264 H   0  0  0  0  0  0  0  0  0  0  0  0
    0.9180   -1.1277    0.7766 H   0  0  0  0  0  0  0  0  0  0  0  0
    3.4866    1.5683    0.9577 H   0  0  0  0  0  0  0  0  0  0  0  0
    5.8174    1.2864    0.1897 H   0  0  0  0  0  0  0  0  0  0  0  0
    6.4758   -0.7370   -1.0824 H   0  0  0  0  0  0  0  0  0  0  0  0
    4.7925   -2.4837   -1.5934 H   0  0  0  0  0  0  0  0  0  0  0  0
    2.4570   -2.2197   -0.8339 H   0  0  0  0  0  0  0  0  0  0  0  0
   -1.5028   -1.0596   -0.9679 H   0  0  0  0  0  0  0  0  0  0  0  0
  1  2  1  0
  2  3  2  0
  2  4  1  0
  4  5  1  0
  5  6  2  0
  6  7  1  0
  7  8  1  0
  7  9  2  0
  9 10  1  0
 10 11  1  0
 11 12  1  0
 12 13  2  0
 13 14  1  0
 14 15  2  0
 15 16  1  0
 16 17  2  0
  9 18  1  0
 18  4  2  0
 17 12  1  0
  1 19  1  0
  1 20  1  0
  1 21  1  0
  5 22  1  0
  6 23  1  0
 10 24  1  0
 10 25  1  0
 11 26  1  0
 11 27  1  0
 13 28  1  0
 14 29  1  0
 15 30  1  0
 16 31  1  0
 17 32  1  0
 18 33  1  0
M  RAD  1   8   3
M  END
$$$$
