
     RDKit          3D

 33 34  0  0  0  0  0  0  0  0999 V2000
    3.6779   -0.0790   -2.2729 C   0  0  0  0  0  0  0  0  0  0  0  0
    2.5890    0.5325   -1.4431 C   0  0  0  0  0  0  0  0  0  0  0  0
    2.1238    1.6504   -1.7964 O   0  0  0  0  0  0  0  0  0  0  0  0
    2.0503   -0.1423   -0.2311 C   0  0  0  0  0  0  0  0  0  0  0  0
    2.5353   -1.3962    0.1847 C   0  0  0  0  0  0  0  0  0  0  0  0
    2.0061   -2.0233    1.3143 C   0  0  0  0  0  0  0  0  0  0  0  0
    0.9860   -1.4151    2.0497 C   0  0  0  0  0  0  0  0  0  0  0  0
    0.4523   -2.0889    3.1875 N   0  0  0  0  0  1  0  0  0  0  0  0
    0.4935   -0.1549    1.6597 C   0  0  0  0  0  0  0  0  0  0  0  0
   -0.6487    0.5033    2.4004 C   0  0  0  0  0  0  0  0  0  0  0  0
   -2.0116   -0.0356    1.9419 C   0  0  0  0  0  0  0  0  0  0  0  0
   -2.2781    0.2795    0.4917 C   0  0  0  0  0  0  0  0  0  0  0  0
   -2.7263    1.5568    0.1163 C   0  0  0  0  0  0  0  0  0  0  0  0
   -2.9212    1.8662   -1.2333 C   0  0  0  0  0  0  0  0  0  0  0  0
   -2.6634    0.9069   -2.2164 C   0  0  0  0  0  0  0  0  0  0  0  0
   -2.2095   -0.3636   -1.8517 C   0  0  0  0  0  0  0  0  0  0  0  0
   -2.0154   -0.6779   -0.5033 C   0  0  0  0  0  0  0  0  0  0  0  0
    1.0285    0.4691    0.5192 C   0  0  0  0  0  0  0  0  0  0  0  0
    3.3390   -1.0546   -2.6797 H   0  0  0  0  0  0  0  0  0  0  0  0
    4.5869   -0.2266   -1.6529 H   0  0  0  0  0  0  0  0  0  0  0  0
    3.9386    0.5849   -3.1247 H   0  0  0  0  0  0  0  0  0  0  0  0
    3.3200   -1.9026   -0.3609 H   0  0  0  0  0  0  0  0  0  0  0  0
    2.3876   -2.9913    1.6148 H   0  0  0  0  0  0  0  0  0  0  0  0
   -0.5387    0.3276    3.4921 H   0  0  0  0  0  0  0  0  0  0  0  0
   -0.6180    1.6063    2.2593 H   0  0  0  0  0  0  0  0  0  0  0  0
   -2.8074    0.4231    2.5681 H   0  0  0  0  0  0  0  0  0  0  0  0
   -2.0609   -1.1328    2.1165 H   0  0  0  0  0  0  0  0  0  0  0  0
   -2.9168    2.3129    0.8680 H   0  0  0  0  0  0  0  0  0  0  0  0
   -3.2670    2.8516   -1.5175 H   0  0  0  0  0  0  0  0  0  0  0  0
   -2.8114    1.1492   -3.2608 H   0  0  0  0  0  0  0  0  0  0  0  0
   -2.0031   -1.1034   -2.6142 H   0  0  0  0  0  0  0  0  0  0  0  0
   -1.6484   -1.6611   -0.2356 H   0  0  0  0  0  0  0  0  0  0  0  0
    0.6314    1.4287    0.2101 H   0  0  0  0  0  0  0  0  0  0  0  0
  1  2  1  0
  2  3  2  0
  2  4  1  0
  4  5  1  0
  5  6  2  0
  6  7  1  0
  7  8  1  0
  7  9  2  0
  9 10  1  0
 10 11  1  0
 11 12  1  0
 12 13  2  0
 13 14  1  0
 14 15  2  0
 15 16  1  0
 16 17  2  0
  9 18  1  0
 18  4  2  0
 17 12  1  0
  1 19  1  0
  1 20  1  0
  1 21  1  0
  5 22  1  0
  6 23  1  0
 10 24  1  0
 10 25  1  0
 11 26  1  0
 11 27  1  0
 13 28  1  0
 14 29  1  0
 15 30  1  0
 16 31  1  0
 17 32  1  0
 18 33  1  0
M  RAD  1   8   3
M  END
$$$$
