
     RDKit          3D

 33 34  0  0  0  0  0  0  0  0999 V2000
    3.6098    2.1977    0.8881 C   0  0  0  0  0  0  0  0  0  0  0  0
    2.4676    1.2621    1.1498 C   0  0  0  0  0  0  0  0  0  0  0  0
    1.8538    1.3597    2.2473 O   0  0  0  0  0  0  0  0  0  0  0  0
    2.0462    0.2377    0.1560 C   0  0  0  0  0  0  0  0  0  0  0  0
    2.6988    0.1096   -1.0842 C   0  0  0  0  0  0  0  0  0  0  0  0
    2.2789   -0.8454   -2.0122 C   0  0  0  0  0  0  0  0  0  0  0  0
    1.2035   -1.6889   -1.7236 C   0  0  0  0  0  0  0  0  0  0  0  0
    0.7853   -2.6412   -2.6991 N   0  0  0  0  0  1  0  0  0  0  0  0
    0.5432   -1.5871   -0.4840 C   0  0  0  0  0  0  0  0  0  0  0  0
   -0.6597   -2.4458   -0.1643 C   0  0  0  0  0  0  0  0  0  0  0  0
   -1.9498   -1.8652   -0.7613 C   0  0  0  0  0  0  0  0  0  0  0  0
   -2.2846   -0.5203   -0.1674 C   0  0  0  0  0  0  0  0  0  0  0  0
   -2.9029   -0.4372    1.0912 C   0  0  0  0  0  0  0  0  0  0  0  0
   -3.1639    0.8103    1.6664 C   0  0  0  0  0  0  0  0  0  0  0  0
   -2.8034    1.9812    0.9939 C   0  0  0  0  0  0  0  0  0  0  0  0
   -2.1807    1.9068   -0.2549 C   0  0  0  0  0  0  0  0  0  0  0  0
   -1.9198    0.6617   -0.8347 C   0  0  0  0  0  0  0  0  0  0  0  0
    0.9690   -0.6210    0.4442 C   0  0  0  0  0  0  0  0  0  0  0  0
    3.7643    2.8762    1.7540 H   0  0  0  0  0  0  0  0  0  0  0  0
    3.3925    2.8164   -0.0077 H   0  0  0  0  0  0  0  0  0  0  0  0
    4.5426    1.6182    0.7262 H   0  0  0  0  0  0  0  0  0  0  0  0
    3.5314    0.7474   -1.3480 H   0  0  0  0  0  0  0  0  0  0  0  0
    2.7892   -0.9244   -2.9642 H   0  0  0  0  0  0  0  0  0  0  0  0
   -0.5054   -3.4712   -0.5638 H   0  0  0  0  0  0  0  0  0  0  0  0
   -0.7757   -2.5564    0.9365 H   0  0  0  0  0  0  0  0  0  0  0  0
   -2.7856   -2.5709   -0.5631 H   0  0  0  0  0  0  0  0  0  0  0  0
   -1.8523   -1.7885   -1.8664 H   0  0  0  0  0  0  0  0  0  0  0  0
   -3.1748   -1.3375    1.6280 H   0  0  0  0  0  0  0  0  0  0  0  0
   -3.6408    0.8692    2.6362 H   0  0  0  0  0  0  0  0  0  0  0  0
   -3.0030    2.9459    1.4423 H   0  0  0  0  0  0  0  0  0  0  0  0
   -1.8953    2.8140   -0.7715 H   0  0  0  0  0  0  0  0  0  0  0  0
   -1.4226    0.6182   -1.7959 H   0  0  0  0  0  0  0  0  0  0  0  0
    0.4442   -0.5315    1.3879 H   0  0  0  0  0  0  0  0  0  0  0  0
  1  2  1  0
  2  3  2  0
  2  4  1  0
  4  5  1  0
  5  6  2  0
  6  7  1  0
  7  8  1  0
  7  9  2  0
  9 10  1  0
 10 11  1  0
 11 12  1  0
 12 13  2  0
 13 14  1  0
 14 15  2  0
 15 16  1  0
 16 17  2  0
  9 18  1  0
 18  4  2  0
 17 12  1  0
  1 19  1  0
  1 20  1  0
  1 21  1  0
  5 22  1  0
  6 23  1  0
 10 24  1  0
 10 25  1  0
 11 26  1  0
 11 27  1  0
 13 28  1  0
 14 29  1  0
 15 30  1  0
 16 31  1  0
 17 32  1  0
 18 33  1  0
M  RAD  1   8   3
M  END
$$$$
