
     RDKit          3D

 33 34  0  0  0  0  0  0  0  0999 V2000
    3.6711    2.0192    1.0701 C   0  0  0  0  0  0  0  0  0  0  0  0
    2.6200    1.4774    0.1482 C   0  0  0  0  0  0  0  0  0  0  0  0
    2.2251    2.2058   -0.8028 O   0  0  0  0  0  0  0  0  0  0  0  0
    2.0381    0.1198    0.3298 C   0  0  0  0  0  0  0  0  0  0  0  0
    2.4443   -0.7147    1.3877 C   0  0  0  0  0  0  0  0  0  0  0  0
    1.8750   -1.9788    1.5537 C   0  0  0  0  0  0  0  0  0  0  0  0
    0.8926   -2.4348    0.6715 C   0  0  0  0  0  0  0  0  0  0  0  0
    0.3160   -3.7225    0.8782 N   0  0  0  0  0  1  0  0  0  0  0  0
    0.4794   -1.6221   -0.4015 C   0  0  0  0  0  0  0  0  0  0  0  0
   -0.6219   -2.0629   -1.3393 C   0  0  0  0  0  0  0  0  0  0  0  0
   -2.0142   -1.7872   -0.7535 C   0  0  0  0  0  0  0  0  0  0  0  0
   -2.2577   -0.3116   -0.5615 C   0  0  0  0  0  0  0  0  0  0  0  0
   -2.0522    0.2850    0.6944 C   0  0  0  0  0  0  0  0  0  0  0  0
   -2.2236    1.6630    0.8560 C   0  0  0  0  0  0  0  0  0  0  0  0
   -2.5977    2.4547   -0.2332 C   0  0  0  0  0  0  0  0  0  0  0  0
   -2.7982    1.8699   -1.4866 C   0  0  0  0  0  0  0  0  0  0  0  0
   -2.6256    0.4923   -1.6532 C   0  0  0  0  0  0  0  0  0  0  0  0
    1.0542   -0.3490   -0.5606 C   0  0  0  0  0  0  0  0  0  0  0  0
    3.2737    2.0717    2.1053 H   0  0  0  0  0  0  0  0  0  0  0  0
    4.5679    1.3653    1.0454 H   0  0  0  0  0  0  0  0  0  0  0  0
    3.9739    3.0415    0.7582 H   0  0  0  0  0  0  0  0  0  0  0  0
    3.1975   -0.3962    2.0954 H   0  0  0  0  0  0  0  0  0  0  0  0
    2.1956   -2.6039    2.3779 H   0  0  0  0  0  0  0  0  0  0  0  0
   -0.5252   -3.1503   -1.5465 H   0  0  0  0  0  0  0  0  0  0  0  0
   -0.5231   -1.5502   -2.3216 H   0  0  0  0  0  0  0  0  0  0  0  0
   -2.7817   -2.1976   -1.4452 H   0  0  0  0  0  0  0  0  0  0  0  0
   -2.1313   -2.3288    0.2107 H   0  0  0  0  0  0  0  0  0  0  0  0
   -1.7469   -0.3144    1.5433 H   0  0  0  0  0  0  0  0  0  0  0  0
   -2.0614    2.1180    1.8245 H   0  0  0  0  0  0  0  0  0  0  0  0
   -2.7282    3.5217   -0.1069 H   0  0  0  0  0  0  0  0  0  0  0  0
   -3.0821    2.4850   -2.3307 H   0  0  0  0  0  0  0  0  0  0  0  0
   -2.7710    0.0529   -2.6323 H   0  0  0  0  0  0  0  0  0  0  0  0
    0.7176    0.2817   -1.3748 H   0  0  0  0  0  0  0  0  0  0  0  0
  1  2  1  0
  2  3  2  0
  2  4  1  0
  4  5  1  0
  5  6  2  0
  6  7  1  0
  7  8  1  0
  7  9  2  0
  9 10  1  0
 10 11  1  0
 11 12  1  0
 12 13  2  0
 13 14  1  0
 14 15  2  0
 15 16  1  0
 16 17  2  0
  9 18  1  0
 18  4  2  0
 17 12  1  0
  1 19  1  0
  1 20  1  0
  1 21  1  0
  5 22  1  0
  6 23  1  0
 10 24  1  0
 10 25  1  0
 11 26  1  0
 11 27  1  0
 13 28  1  0
 14 29  1  0
 15 30  1  0
 16 31  1  0
 17 32  1  0
 18 33  1  0
M  RAD  1   8   3
M  END
$$$$
