
     RDKit          3D

 33 34  0  0  0  0  0  0  0  0999 V2000
    5.6241    0.6580   -0.4606 C   0  0  0  0  0  0  0  0  0  0  0  0
    4.1949    0.9737   -0.1348 C   0  0  0  0  0  0  0  0  0  0  0  0
    3.8843    2.1749    0.0919 O   0  0  0  0  0  0  0  0  0  0  0  0
    3.1495   -0.0840   -0.0734 C   0  0  0  0  0  0  0  0  0  0  0  0
    3.4606   -1.4343   -0.3195 C   0  0  0  0  0  0  0  0  0  0  0  0
    2.4664   -2.4131   -0.2672 C   0  0  0  0  0  0  0  0  0  0  0  0
    1.1472   -2.0674    0.0358 C   0  0  0  0  0  0  0  0  0  0  0  0
    0.1508   -3.0872    0.0654 N   0  0  0  0  0  1  0  0  0  0  0  0
    0.8157   -0.7247    0.3021 C   0  0  0  0  0  0  0  0  0  0  0  0
   -0.6062   -0.3143    0.5998 C   0  0  0  0  0  0  0  0  0  0  0  0
   -1.3691   -0.0332   -0.6982 C   0  0  0  0  0  0  0  0  0  0  0  0
   -2.7870    0.3743   -0.4009 C   0  0  0  0  0  0  0  0  0  0  0  0
   -3.1061    1.7257   -0.1867 C   0  0  0  0  0  0  0  0  0  0  0  0
   -4.4180    2.0988    0.1220 C   0  0  0  0  0  0  0  0  0  0  0  0
   -5.4164    1.1265    0.2285 C   0  0  0  0  0  0  0  0  0  0  0  0
   -5.1036   -0.2213    0.0305 C   0  0  0  0  0  0  0  0  0  0  0  0
   -3.7930   -0.5988   -0.2783 C   0  0  0  0  0  0  0  0  0  0  0  0
    1.8183    0.2578    0.2321 C   0  0  0  0  0  0  0  0  0  0  0  0
    5.6884    0.1992   -1.4695 H   0  0  0  0  0  0  0  0  0  0  0  0
    6.2387    1.5835   -0.4565 H   0  0  0  0  0  0  0  0  0  0  0  0
    6.0379   -0.0409    0.2961 H   0  0  0  0  0  0  0  0  0  0  0  0
    4.4694   -1.7427   -0.5583 H   0  0  0  0  0  0  0  0  0  0  0  0
    2.7236   -3.4459   -0.4676 H   0  0  0  0  0  0  0  0  0  0  0  0
   -0.6105    0.5973    1.2378 H   0  0  0  0  0  0  0  0  0  0  0  0
   -1.1222   -1.1120    1.1775 H   0  0  0  0  0  0  0  0  0  0  0  0
   -0.8565    0.7744   -1.2664 H   0  0  0  0  0  0  0  0  0  0  0  0
   -1.3665   -0.9413   -1.3407 H   0  0  0  0  0  0  0  0  0  0  0  0
   -2.3398    2.4878   -0.2570 H   0  0  0  0  0  0  0  0  0  0  0  0
   -4.6600    3.1415    0.2822 H   0  0  0  0  0  0  0  0  0  0  0  0
   -6.4310    1.4168    0.4687 H   0  0  0  0  0  0  0  0  0  0  0  0
   -5.8762   -0.9741    0.1199 H   0  0  0  0  0  0  0  0  0  0  0  0
   -3.5616   -1.6473   -0.4200 H   0  0  0  0  0  0  0  0  0  0  0  0
    1.5538    1.2925    0.4155 H   0  0  0  0  0  0  0  0  0  0  0  0
  1  2  1  0
  2  3  2  0
  2  4  1  0
  4  5  1  0
  5  6  2  0
  6  7  1  0
  7  8  1  0
  7  9  2  0
  9 10  1  0
 10 11  1  0
 11 12  1  0
 12 13  2  0
 13 14  1  0
 14 15  2  0
 15 16  1  0
 16 17  2  0
  9 18  1  0
 18  4  2  0
 17 12  1  0
  1 19  1  0
  1 20  1  0
  1 21  1  0
  5 22  1  0
  6 23  1  0
 10 24  1  0
 10 25  1  0
 11 26  1  0
 11 27  1  0
 13 28  1  0
 14 29  1  0
 15 30  1  0
 16 31  1  0
 17 32  1  0
 18 33  1  0
M  RAD  1   8   3
M  END
$$$$
