
     RDKit          3D

 33 34  0  0  0  0  0  0  0  0999 V2000
    5.5547    0.3003    1.0188 C   0  0  0  0  0  0  0  0  0  0  0  0
    4.1135    0.7104    0.9599 C   0  0  0  0  0  0  0  0  0  0  0  0
    3.7231    1.6351    1.7238 O   0  0  0  0  0  0  0  0  0  0  0  0
    3.1474    0.0601    0.0332 C   0  0  0  0  0  0  0  0  0  0  0  0
    3.5486   -0.9739   -0.8333 C   0  0  0  0  0  0  0  0  0  0  0  0
    2.6277   -1.5799   -1.6900 C   0  0  0  0  0  0  0  0  0  0  0  0
    1.2938   -1.1652   -1.7040 C   0  0  0  0  0  0  0  0  0  0  0  0
    0.3731   -1.8147   -2.5782 N   0  0  0  0  0  1  0  0  0  0  0  0
    0.8732   -0.1209   -0.8576 C   0  0  0  0  0  0  0  0  0  0  0  0
   -0.5678    0.3276   -0.8253 C   0  0  0  0  0  0  0  0  0  0  0  0
   -1.3753   -0.5234    0.1594 C   0  0  0  0  0  0  0  0  0  0  0  0
   -2.8121   -0.0768    0.1899 C   0  0  0  0  0  0  0  0  0  0  0  0
   -3.2221    0.9327    1.0770 C   0  0  0  0  0  0  0  0  0  0  0  0
   -4.5506    1.3694    1.0810 C   0  0  0  0  0  0  0  0  0  0  0  0
   -5.4748    0.8096    0.1945 C   0  0  0  0  0  0  0  0  0  0  0  0
   -5.0712   -0.1851   -0.7005 C   0  0  0  0  0  0  0  0  0  0  0  0
   -3.7437   -0.6248   -0.7078 C   0  0  0  0  0  0  0  0  0  0  0  0
    1.8018    0.4741    0.0137 C   0  0  0  0  0  0  0  0  0  0  0  0
    6.1019    0.9056    1.7727 H   0  0  0  0  0  0  0  0  0  0  0  0
    5.6310   -0.7693    1.3060 H   0  0  0  0  0  0  0  0  0  0  0  0
    6.0323    0.4578    0.0292 H   0  0  0  0  0  0  0  0  0  0  0  0
    4.5717   -1.3243   -0.8520 H   0  0  0  0  0  0  0  0  0  0  0  0
    2.9534   -2.3796   -2.3436 H   0  0  0  0  0  0  0  0  0  0  0  0
   -1.0138    0.2571   -1.8414 H   0  0  0  0  0  0  0  0  0  0  0  0
   -0.6238    1.3974   -0.5243 H   0  0  0  0  0  0  0  0  0  0  0  0
   -1.3214   -1.5944   -0.1363 H   0  0  0  0  0  0  0  0  0  0  0  0
   -0.9332   -0.4393    1.1769 H   0  0  0  0  0  0  0  0  0  0  0  0
   -2.5135    1.3811    1.7624 H   0  0  0  0  0  0  0  0  0  0  0  0
   -4.8628    2.1444    1.7691 H   0  0  0  0  0  0  0  0  0  0  0  0
   -6.5023    1.1497    0.1980 H   0  0  0  0  0  0  0  0  0  0  0  0
   -5.7862   -0.6131   -1.3912 H   0  0  0  0  0  0  0  0  0  0  0  0
   -3.4413   -1.3894   -1.4127 H   0  0  0  0  0  0  0  0  0  0  0  0
    1.4683    1.2616    0.6791 H   0  0  0  0  0  0  0  0  0  0  0  0
  1  2  1  0
  2  3  2  0
  2  4  1  0
  4  5  1  0
  5  6  2  0
  6  7  1  0
  7  8  1  0
  7  9  2  0
  9 10  1  0
 10 11  1  0
 11 12  1  0
 12 13  2  0
 13 14  1  0
 14 15  2  0
 15 16  1  0
 16 17  2  0
  9 18  1  0
 18  4  2  0
 17 12  1  0
  1 19  1  0
  1 20  1  0
  1 21  1  0
  5 22  1  0
  6 23  1  0
 10 24  1  0
 10 25  1  0
 11 26  1  0
 11 27  1  0
 13 28  1  0
 14 29  1  0
 15 30  1  0
 16 31  1  0
 17 32  1  0
 18 33  1  0
M  RAD  1   8   3
M  END
$$$$
