
     RDKit          3D

 33 34  0  0  0  0  0  0  0  0999 V2000
   -3.3960   -2.4049   -1.0888 C   0  0  0  0  0  0  0  0  0  0  0  0
   -2.3421   -1.8765   -0.1624 C   0  0  0  0  0  0  0  0  0  0  0  0
   -1.7200   -2.6970    0.5661 O   0  0  0  0  0  0  0  0  0  0  0  0
   -2.0162   -0.4264   -0.0867 C   0  0  0  0  0  0  0  0  0  0  0  0
   -2.6799    0.5157   -0.8945 C   0  0  0  0  0  0  0  0  0  0  0  0
   -2.3492    1.8703   -0.8234 C   0  0  0  0  0  0  0  0  0  0  0  0
   -1.3534    2.3115    0.0513 C   0  0  0  0  0  0  0  0  0  0  0  0
   -1.0243    3.6986    0.0876 N   0  0  0  0  0  1  0  0  0  0  0  0
   -0.6844    1.3886    0.8780 C   0  0  0  0  0  0  0  0  0  0  0  0
    0.4369    1.8259    1.7933 C   0  0  0  0  0  0  0  0  0  0  0  0
    1.7730    1.9386    1.0447 C   0  0  0  0  0  0  0  0  0  0  0  0
    2.2283    0.6044    0.5101 C   0  0  0  0  0  0  0  0  0  0  0  0
    1.9701    0.2483   -0.8249 C   0  0  0  0  0  0  0  0  0  0  0  0
    2.3428   -1.0117   -1.3023 C   0  0  0  0  0  0  0  0  0  0  0  0
    2.9720   -1.9249   -0.4519 C   0  0  0  0  0  0  0  0  0  0  0  0
    3.2269   -1.5806    0.8784 C   0  0  0  0  0  0  0  0  0  0  0  0
    2.8538   -0.3222    1.3607 C   0  0  0  0  0  0  0  0  0  0  0  0
   -1.0201    0.0257    0.7987 C   0  0  0  0  0  0  0  0  0  0  0  0
   -3.1256   -2.1709   -2.1398 H   0  0  0  0  0  0  0  0  0  0  0  0
   -3.4874   -3.5074   -0.9872 H   0  0  0  0  0  0  0  0  0  0  0  0
   -4.3775   -1.9478   -0.8435 H   0  0  0  0  0  0  0  0  0  0  0  0
   -3.4523    0.2136   -1.5887 H   0  0  0  0  0  0  0  0  0  0  0  0
   -2.8662    2.5795   -1.4579 H   0  0  0  0  0  0  0  0  0  0  0  0
    0.1905    2.8112    2.2442 H   0  0  0  0  0  0  0  0  0  0  0  0
    0.5446    1.1149    2.6420 H   0  0  0  0  0  0  0  0  0  0  0  0
    1.6807    2.6773    0.2185 H   0  0  0  0  0  0  0  0  0  0  0  0
    2.5423    2.3350    1.7425 H   0  0  0  0  0  0  0  0  0  0  0  0
    1.4692    0.9406   -1.4904 H   0  0  0  0  0  0  0  0  0  0  0  0
    2.1392   -1.2821   -2.3303 H   0  0  0  0  0  0  0  0  0  0  0  0
    3.2582   -2.9007   -0.8225 H   0  0  0  0  0  0  0  0  0  0  0  0
    3.7089   -2.2909    1.5376 H   0  0  0  0  0  0  0  0  0  0  0  0
    3.0447   -0.0720    2.3969 H   0  0  0  0  0  0  0  0  0  0  0  0
   -0.4876   -0.6839    1.4208 H   0  0  0  0  0  0  0  0  0  0  0  0
  1  2  1  0
  2  3  2  0
  2  4  1  0
  4  5  1  0
  5  6  2  0
  6  7  1  0
  7  8  1  0
  7  9  2  0
  9 10  1  0
 10 11  1  0
 11 12  1  0
 12 13  2  0
 13 14  1  0
 14 15  2  0
 15 16  1  0
 16 17  2  0
  9 18  1  0
 18  4  2  0
 17 12  1  0
  1 19  1  0
  1 20  1  0
  1 21  1  0
  5 22  1  0
  6 23  1  0
 10 24  1  0
 10 25  1  0
 11 26  1  0
 11 27  1  0
 13 28  1  0
 14 29  1  0
 15 30  1  0
 16 31  1  0
 17 32  1  0
 18 33  1  0
M  RAD  1   8   3
M  END
$$$$
