
     RDKit          3D

 33 34  0  0  0  0  0  0  0  0999 V2000
    5.4992    1.3491   -0.3619 C   0  0  0  0  0  0  0  0  0  0  0  0
    4.0281    1.5178   -0.1250 C   0  0  0  0  0  0  0  0  0  0  0  0
    3.5530    2.6861   -0.1212 O   0  0  0  0  0  0  0  0  0  0  0  0
    3.1291    0.3537    0.1028 C   0  0  0  0  0  0  0  0  0  0  0  0
    3.6251   -0.9634    0.1059 C   0  0  0  0  0  0  0  0  0  0  0  0
    2.7667   -2.0450    0.3118 C   0  0  0  0  0  0  0  0  0  0  0  0
    1.4019   -1.8360    0.5234 C   0  0  0  0  0  0  0  0  0  0  0  0
    0.5476   -2.9619    0.7142 N   0  0  0  0  0  1  0  0  0  0  0  0
    0.8856   -0.5256    0.5411 C   0  0  0  0  0  0  0  0  0  0  0  0
   -0.5892   -0.2683    0.7341 C   0  0  0  0  0  0  0  0  0  0  0  0
   -1.3260   -0.3233   -0.6075 C   0  0  0  0  0  0  0  0  0  0  0  0
   -2.7965   -0.0680   -0.4144 C   0  0  0  0  0  0  0  0  0  0  0  0
   -3.2991    1.2435   -0.4495 C   0  0  0  0  0  0  0  0  0  0  0  0
   -4.6606    1.4817   -0.2370 C   0  0  0  0  0  0  0  0  0  0  0  0
   -5.5264    0.4153    0.0213 C   0  0  0  0  0  0  0  0  0  0  0  0
   -5.0314   -0.8908    0.0717 C   0  0  0  0  0  0  0  0  0  0  0  0
   -3.6706   -1.1334   -0.1402 C   0  0  0  0  0  0  0  0  0  0  0  0
    1.7526    0.5578    0.3173 C   0  0  0  0  0  0  0  0  0  0  0  0
    5.9862    2.3366   -0.5097 H   0  0  0  0  0  0  0  0  0  0  0  0
    5.6667    0.7360   -1.2721 H   0  0  0  0  0  0  0  0  0  0  0  0
    5.9681    0.8549    0.5146 H   0  0  0  0  0  0  0  0  0  0  0  0
    4.6750   -1.1674   -0.0551 H   0  0  0  0  0  0  0  0  0  0  0  0
    3.1657   -3.0518    0.3025 H   0  0  0  0  0  0  0  0  0  0  0  0
   -1.0203   -1.0170    1.4341 H   0  0  0  0  0  0  0  0  0  0  0  0
   -0.7406    0.7306    1.2003 H   0  0  0  0  0  0  0  0  0  0  0  0
   -1.1768   -1.3199   -1.0786 H   0  0  0  0  0  0  0  0  0  0  0  0
   -0.8999    0.4361   -1.3000 H   0  0  0  0  0  0  0  0  0  0  0  0
   -2.6370    2.0794   -0.6393 H   0  0  0  0  0  0  0  0  0  0  0  0
   -5.0439    2.4934   -0.2691 H   0  0  0  0  0  0  0  0  0  0  0  0
   -6.5797    0.6015    0.1869 H   0  0  0  0  0  0  0  0  0  0  0  0
   -5.7017   -1.7151    0.2785 H   0  0  0  0  0  0  0  0  0  0  0  0
   -3.2978   -2.1490   -0.0891 H   0  0  0  0  0  0  0  0  0  0  0  0
    1.3469    1.5625    0.3094 H   0  0  0  0  0  0  0  0  0  0  0  0
  1  2  1  0
  2  3  2  0
  2  4  1  0
  4  5  1  0
  5  6  2  0
  6  7  1  0
  7  8  1  0
  7  9  2  0
  9 10  1  0
 10 11  1  0
 11 12  1  0
 12 13  2  0
 13 14  1  0
 14 15  2  0
 15 16  1  0
 16 17  2  0
  9 18  1  0
 18  4  2  0
 17 12  1  0
  1 19  1  0
  1 20  1  0
  1 21  1  0
  5 22  1  0
  6 23  1  0
 10 24  1  0
 10 25  1  0
 11 26  1  0
 11 27  1  0
 13 28  1  0
 14 29  1  0
 15 30  1  0
 16 31  1  0
 17 32  1  0
 18 33  1  0
M  RAD  1   8   3
M  END
$$$$
