
     RDKit          3D

 33 34  0  0  0  0  0  0  0  0999 V2000
    5.5351    1.2498    0.0049 C   0  0  0  0  0  0  0  0  0  0  0  0
    4.0971    1.2607   -0.4202 C   0  0  0  0  0  0  0  0  0  0  0  0
    3.6972    2.2060   -1.1532 O   0  0  0  0  0  0  0  0  0  0  0  0
    3.1448    0.1959   -0.0025 C   0  0  0  0  0  0  0  0  0  0  0  0
    3.5567   -0.8739    0.8141 C   0  0  0  0  0  0  0  0  0  0  0  0
    2.6486   -1.8597    1.2047 C   0  0  0  0  0  0  0  0  0  0  0  0
    1.3171   -1.8022    0.7862 C   0  0  0  0  0  0  0  0  0  0  0  0
    0.4093   -2.8149    1.2153 N   0  0  0  0  0  1  0  0  0  0  0  0
    0.8861   -0.7501   -0.0451 C   0  0  0  0  0  0  0  0  0  0  0  0
   -0.5532   -0.6416   -0.4871 C   0  0  0  0  0  0  0  0  0  0  0  0
   -1.3820    0.1135    0.5563 C   0  0  0  0  0  0  0  0  0  0  0  0
   -2.8171    0.2199    0.1159 C   0  0  0  0  0  0  0  0  0  0  0  0
   -3.2384    1.3041   -0.6723 C   0  0  0  0  0  0  0  0  0  0  0  0
   -4.5647    1.3842   -1.1082 C   0  0  0  0  0  0  0  0  0  0  0  0
   -5.4755    0.3796   -0.7693 C   0  0  0  0  0  0  0  0  0  0  0  0
   -5.0604   -0.7091    0.0026 C   0  0  0  0  0  0  0  0  0  0  0  0
   -3.7350   -0.7931    0.4406 C   0  0  0  0  0  0  0  0  0  0  0  0
    1.8016    0.2477   -0.4216 C   0  0  0  0  0  0  0  0  0  0  0  0
    6.0311    0.3287   -0.3666 H   0  0  0  0  0  0  0  0  0  0  0  0
    6.0714    2.1292   -0.4113 H   0  0  0  0  0  0  0  0  0  0  0  0
    5.6013    1.2907    1.1123 H   0  0  0  0  0  0  0  0  0  0  0  0
    4.5784   -0.9539    1.1600 H   0  0  0  0  0  0  0  0  0  0  0  0
    2.9824   -2.6707    1.8401 H   0  0  0  0  0  0  0  0  0  0  0  0
   -0.6097   -0.1092   -1.4625 H   0  0  0  0  0  0  0  0  0  0  0  0
   -0.9812   -1.6548   -0.6501 H   0  0  0  0  0  0  0  0  0  0  0  0
   -0.9578    1.1310    0.7064 H   0  0  0  0  0  0  0  0  0  0  0  0
   -1.3277   -0.4141    1.5341 H   0  0  0  0  0  0  0  0  0  0  0  0
   -2.5402    2.0842   -0.9495 H   0  0  0  0  0  0  0  0  0  0  0  0
   -4.8856    2.2234   -1.7116 H   0  0  0  0  0  0  0  0  0  0  0  0
   -6.5013    0.4425   -1.1086 H   0  0  0  0  0  0  0  0  0  0  0  0
   -5.7648   -1.4898    0.2587 H   0  0  0  0  0  0  0  0  0  0  0  0
   -3.4234   -1.6466    1.0301 H   0  0  0  0  0  0  0  0  0  0  0  0
    1.4599    1.0672   -1.0425 H   0  0  0  0  0  0  0  0  0  0  0  0
  1  2  1  0
  2  3  2  0
  2  4  1  0
  4  5  1  0
  5  6  2  0
  6  7  1  0
  7  8  1  0
  7  9  2  0
  9 10  1  0
 10 11  1  0
 11 12  1  0
 12 13  2  0
 13 14  1  0
 14 15  2  0
 15 16  1  0
 16 17  2  0
  9 18  1  0
 18  4  2  0
 17 12  1  0
  1 19  1  0
  1 20  1  0
  1 21  1  0
  5 22  1  0
  6 23  1  0
 10 24  1  0
 10 25  1  0
 11 26  1  0
 11 27  1  0
 13 28  1  0
 14 29  1  0
 15 30  1  0
 16 31  1  0
 17 32  1  0
 18 33  1  0
M  RAD  1   8   3
M  END
$$$$
