
     RDKit          3D

 34 35  0  0  0  0  0  0  0  0999 V2000
   -3.0100    2.0453   -1.5748 N   0  0  0  0  0  1  0  0  0  0  0  0
   -3.7253    1.1521   -0.7239 C   0  0  0  0  0  0  0  0  0  0  0  0
   -5.0634    0.8586   -1.0133 C   0  0  0  0  0  0  0  0  0  0  0  0
   -5.7815   -0.0249   -0.2039 C   0  0  0  0  0  0  0  0  0  0  0  0
   -5.1648   -0.6235    0.8964 C   0  0  0  0  0  0  0  0  0  0  0  0
   -3.8297   -0.3366    1.1934 C   0  0  0  0  0  0  0  0  0  0  0  0
   -3.0999    0.5624    0.3958 C   0  0  0  0  0  0  0  0  0  0  0  0
   -1.6499    0.8315    0.7166 C   0  0  0  0  0  0  0  0  0  0  0  0
   -0.7394   -0.1322   -0.0521 C   0  0  0  0  0  0  0  0  0  0  0  0
    0.7365    0.1317    0.2670 C   0  0  0  0  0  0  0  0  0  0  0  0
    1.6467   -0.8321   -0.5015 C   0  0  0  0  0  0  0  0  0  0  0  0
    3.0926   -0.5633   -0.1806 C   0  0  0  0  0  0  0  0  0  0  0  0
    3.8233    0.3728   -0.9316 C   0  0  0  0  0  0  0  0  0  0  0  0
    5.1570    0.6454   -0.6114 C   0  0  0  0  0  0  0  0  0  0  0  0
    5.7665   -0.0059    0.4645 C   0  0  0  0  0  0  0  0  0  0  0  0
    5.0420   -0.9281    1.2249 C   0  0  0  0  0  0  0  0  0  0  0  0
    3.7080   -1.2037    0.9082 C   0  0  0  0  0  0  0  0  0  0  0  0
   -5.5470    1.3127   -1.8691 H   0  0  0  0  0  0  0  0  0  0  0  0
   -6.8153   -0.2495   -0.4328 H   0  0  0  0  0  0  0  0  0  0  0  0
   -5.7207   -1.3133    1.5182 H   0  0  0  0  0  0  0  0  0  0  0  0
   -3.3637   -0.8168    2.0450 H   0  0  0  0  0  0  0  0  0  0  0  0
   -1.3912    1.8822    0.4618 H   0  0  0  0  0  0  0  0  0  0  0  0
   -1.4777    0.7136    1.8093 H   0  0  0  0  0  0  0  0  0  0  0  0
   -0.9075   -0.0064   -1.1446 H   0  0  0  0  0  0  0  0  0  0  0  0
   -0.9950   -1.1788    0.2259 H   0  0  0  0  0  0  0  0  0  0  0  0
    0.9917    1.1784   -0.0108 H   0  0  0  0  0  0  0  0  0  0  0  0
    0.9056    0.0047    1.3594 H   0  0  0  0  0  0  0  0  0  0  0  0
    1.3918   -1.8817   -0.2355 H   0  0  0  0  0  0  0  0  0  0  0  0
    1.4771   -0.7173   -1.5949 H   0  0  0  0  0  0  0  0  0  0  0  0
    3.3599    0.8912   -1.7620 H   0  0  0  0  0  0  0  0  0  0  0  0
    5.7170    1.3643   -1.1954 H   0  0  0  0  0  0  0  0  0  0  0  0
    6.7984    0.2072    0.7118 H   0  0  0  0  0  0  0  0  0  0  0  0
    5.5130   -1.4269    2.0620 H   0  0  0  0  0  0  0  0  0  0  0  0
    3.1549   -1.9134    1.5109 H   0  0  0  0  0  0  0  0  0  0  0  0
  1  2  1  0
  2  3  2  0
  3  4  1  0
  4  5  2  0
  5  6  1  0
  6  7  2  0
  7  8  1  0
  8  9  1  0
  9 10  1  0
 10 11  1  0
 11 12  1  0
 12 13  2  0
 13 14  1  0
 14 15  2  0
 15 16  1  0
 16 17  2  0
  7  2  1  0
 17 12  1  0
  3 18  1  0
  4 19  1  0
  5 20  1  0
  6 21  1  0
  8 22  1  0
  8 23  1  0
  9 24  1  0
  9 25  1  0
 10 26  1  0
 10 27  1  0
 11 28  1  0
 11 29  1  0
 13 30  1  0
 14 31  1  0
 15 32  1  0
 16 33  1  0
 17 34  1  0
M  RAD  1   1   3
M  END
$$$$
