
     RDKit          3D

 34 35  0  0  0  0  0  0  0  0999 V2000
   -2.2470    0.2970   -2.0882 N   0  0  0  0  0  1  0  0  0  0  0  0
   -2.9780    0.3297   -0.8649 C   0  0  0  0  0  0  0  0  0  0  0  0
   -4.3106   -0.1004   -0.8596 C   0  0  0  0  0  0  0  0  0  0  0  0
   -5.0540   -0.0786    0.3224 C   0  0  0  0  0  0  0  0  0  0  0  0
   -4.4701    0.3738    1.5066 C   0  0  0  0  0  0  0  0  0  0  0  0
   -3.1411    0.8049    1.5122 C   0  0  0  0  0  0  0  0  0  0  0  0
   -2.3799    0.7894    0.3296 C   0  0  0  0  0  0  0  0  0  0  0  0
   -0.9374    1.2429    0.3770 C   0  0  0  0  0  0  0  0  0  0  0  0
   -0.0218    0.1993    1.0406 C   0  0  0  0  0  0  0  0  0  0  0  0
    0.1263   -1.1098    0.2405 C   0  0  0  0  0  0  0  0  0  0  0  0
    0.9240   -0.9643   -1.0670 C   0  0  0  0  0  0  0  0  0  0  0  0
    2.3539   -0.5552   -0.8216 C   0  0  0  0  0  0  0  0  0  0  0  0
    3.2897   -1.4965   -0.3608 C   0  0  0  0  0  0  0  0  0  0  0  0
    4.6111   -1.1127   -0.1120 C   0  0  0  0  0  0  0  0  0  0  0  0
    5.0062    0.2121   -0.3172 C   0  0  0  0  0  0  0  0  0  0  0  0
    4.0803    1.1556   -0.7705 C   0  0  0  0  0  0  0  0  0  0  0  0
    2.7580    0.7760   -1.0212 C   0  0  0  0  0  0  0  0  0  0  0  0
   -4.7716   -0.4528   -1.7739 H   0  0  0  0  0  0  0  0  0  0  0  0
   -6.0835   -0.4126    0.3202 H   0  0  0  0  0  0  0  0  0  0  0  0
   -5.0474    0.3895    2.4220 H   0  0  0  0  0  0  0  0  0  0  0  0
   -2.7029    1.1506    2.4404 H   0  0  0  0  0  0  0  0  0  0  0  0
   -0.5576    1.5105   -0.6298 H   0  0  0  0  0  0  0  0  0  0  0  0
   -0.8838    2.1796    0.9736 H   0  0  0  0  0  0  0  0  0  0  0  0
    0.9780    0.6512    1.2118 H   0  0  0  0  0  0  0  0  0  0  0  0
   -0.4267   -0.0477    2.0461 H   0  0  0  0  0  0  0  0  0  0  0  0
    0.6336   -1.8599    0.8857 H   0  0  0  0  0  0  0  0  0  0  0  0
   -0.8783   -1.5225    0.0079 H   0  0  0  0  0  0  0  0  0  0  0  0
    0.4244   -0.2473   -1.7502 H   0  0  0  0  0  0  0  0  0  0  0  0
    0.9183   -1.9439   -1.5926 H   0  0  0  0  0  0  0  0  0  0  0  0
    2.9947   -2.5251   -0.1936 H   0  0  0  0  0  0  0  0  0  0  0  0
    5.3283   -1.8419    0.2418 H   0  0  0  0  0  0  0  0  0  0  0  0
    6.0291    0.5078   -0.1230 H   0  0  0  0  0  0  0  0  0  0  0  0
    4.3865    2.1820   -0.9256 H   0  0  0  0  0  0  0  0  0  0  0  0
    2.0496    1.5194   -1.3651 H   0  0  0  0  0  0  0  0  0  0  0  0
  1  2  1  0
  2  3  2  0
  3  4  1  0
  4  5  2  0
  5  6  1  0
  6  7  2  0
  7  8  1  0
  8  9  1  0
  9 10  1  0
 10 11  1  0
 11 12  1  0
 12 13  2  0
 13 14  1  0
 14 15  2  0
 15 16  1  0
 16 17  2  0
  7  2  1  0
 17 12  1  0
  3 18  1  0
  4 19  1  0
  5 20  1  0
  6 21  1  0
  8 22  1  0
  8 23  1  0
  9 24  1  0
  9 25  1  0
 10 26  1  0
 10 27  1  0
 11 28  1  0
 11 29  1  0
 13 30  1  0
 14 31  1  0
 15 32  1  0
 16 33  1  0
 17 34  1  0
M  RAD  1   1   3
M  END
$$$$
