
     RDKit          3D

 34 35  0  0  0  0  0  0  0  0999 V2000
   -3.1631   -2.2624   -1.4389 N   0  0  0  0  0  1  0  0  0  0  0  0
   -3.4103   -1.0391   -0.7491 C   0  0  0  0  0  0  0  0  0  0  0  0
   -4.6593   -0.8342   -0.1505 C   0  0  0  0  0  0  0  0  0  0  0  0
   -4.9277    0.3560    0.5294 C   0  0  0  0  0  0  0  0  0  0  0  0
   -3.9493    1.3482    0.6143 C   0  0  0  0  0  0  0  0  0  0  0  0
   -2.7001    1.1534    0.0195 C   0  0  0  0  0  0  0  0  0  0  0  0
   -2.4166   -0.0395   -0.6693 C   0  0  0  0  0  0  0  0  0  0  0  0
   -1.0504   -0.2416   -1.2836 C   0  0  0  0  0  0  0  0  0  0  0  0
   -0.1460   -1.1375   -0.4189 C   0  0  0  0  0  0  0  0  0  0  0  0
    0.1852   -0.5562    0.9702 C   0  0  0  0  0  0  0  0  0  0  0  0
    1.0475    0.7173    0.9362 C   0  0  0  0  0  0  0  0  0  0  0  0
    2.4035    0.4722    0.3249 C   0  0  0  0  0  0  0  0  0  0  0  0
    3.3996   -0.1935    1.0590 C   0  0  0  0  0  0  0  0  0  0  0  0
    4.6503   -0.4421    0.4852 C   0  0  0  0  0  0  0  0  0  0  0  0
    4.9142   -0.0319   -0.8244 C   0  0  0  0  0  0  0  0  0  0  0  0
    3.9275    0.6269   -1.5629 C   0  0  0  0  0  0  0  0  0  0  0  0
    2.6756    0.8781   -0.9929 C   0  0  0  0  0  0  0  0  0  0  0  0
   -5.4237   -1.5988   -0.2116 H   0  0  0  0  0  0  0  0  0  0  0  0
   -5.8946    0.5090    0.9911 H   0  0  0  0  0  0  0  0  0  0  0  0
   -4.1585    2.2693    1.1429 H   0  0  0  0  0  0  0  0  0  0  0  0
   -1.9529    1.9327    0.0993 H   0  0  0  0  0  0  0  0  0  0  0  0
   -1.1677   -0.7160   -2.2817 H   0  0  0  0  0  0  0  0  0  0  0  0
   -0.5569    0.7342   -1.4741 H   0  0  0  0  0  0  0  0  0  0  0  0
    0.7951   -1.3410   -0.9727 H   0  0  0  0  0  0  0  0  0  0  0  0
   -0.6436   -2.1208   -0.2758 H   0  0  0  0  0  0  0  0  0  0  0  0
   -0.7556   -0.3414    1.5201 H   0  0  0  0  0  0  0  0  0  0  0  0
    0.7207   -1.3345    1.5565 H   0  0  0  0  0  0  0  0  0  0  0  0
    1.1865    1.0747    1.9796 H   0  0  0  0  0  0  0  0  0  0  0  0
    0.5158    1.5323    0.4024 H   0  0  0  0  0  0  0  0  0  0  0  0
    3.2061   -0.5203    2.0732 H   0  0  0  0  0  0  0  0  0  0  0  0
    5.4145   -0.9544    1.0554 H   0  0  0  0  0  0  0  0  0  0  0  0
    5.8825   -0.2260   -1.2675 H   0  0  0  0  0  0  0  0  0  0  0  0
    4.1321    0.9417   -2.5780 H   0  0  0  0  0  0  0  0  0  0  0  0
    1.9196    1.3850   -1.5792 H   0  0  0  0  0  0  0  0  0  0  0  0
  1  2  1  0
  2  3  2  0
  3  4  1  0
  4  5  2  0
  5  6  1  0
  6  7  2  0
  7  8  1  0
  8  9  1  0
  9 10  1  0
 10 11  1  0
 11 12  1  0
 12 13  2  0
 13 14  1  0
 14 15  2  0
 15 16  1  0
 16 17  2  0
  7  2  1  0
 17 12  1  0
  3 18  1  0
  4 19  1  0
  5 20  1  0
  6 21  1  0
  8 22  1  0
  8 23  1  0
  9 24  1  0
  9 25  1  0
 10 26  1  0
 10 27  1  0
 11 28  1  0
 11 29  1  0
 13 30  1  0
 14 31  1  0
 15 32  1  0
 16 33  1  0
 17 34  1  0
M  RAD  1   1   3
M  END
$$$$
