
     RDKit          3D

 34 35  0  0  0  0  0  0  0  0999 V2000
    3.1899    1.3145    1.9752 N   0  0  0  0  0  1  0  0  0  0  0  0
    3.8158    0.7091    0.8459 C   0  0  0  0  0  0  0  0  0  0  0  0
    5.1498    0.2955    0.9454 C   0  0  0  0  0  0  0  0  0  0  0  0
    5.7811   -0.3138   -0.1416 C   0  0  0  0  0  0  0  0  0  0  0  0
    5.0811   -0.5173   -1.3324 C   0  0  0  0  0  0  0  0  0  0  0  0
    3.7495   -0.1077   -1.4413 C   0  0  0  0  0  0  0  0  0  0  0  0
    3.1068    0.5203   -0.3600 C   0  0  0  0  0  0  0  0  0  0  0  0
    1.6584    0.9243   -0.4897 C   0  0  0  0  0  0  0  0  0  0  0  0
    0.7387   -0.2007   -0.0026 C   0  0  0  0  0  0  0  0  0  0  0  0
   -0.7356    0.1986   -0.1309 C   0  0  0  0  0  0  0  0  0  0  0  0
   -1.6550   -0.9264    0.3560 C   0  0  0  0  0  0  0  0  0  0  0  0
   -3.0993   -0.5228    0.2257 C   0  0  0  0  0  0  0  0  0  0  0  0
   -3.7995   -0.7697   -0.9672 C   0  0  0  0  0  0  0  0  0  0  0  0
   -5.1316   -0.3647   -1.0984 C   0  0  0  0  0  0  0  0  0  0  0  0
   -5.7697    0.2969   -0.0456 C   0  0  0  0  0  0  0  0  0  0  0  0
   -5.0755    0.5584    1.1390 C   0  0  0  0  0  0  0  0  0  0  0  0
   -3.7433    0.1552    1.2744 C   0  0  0  0  0  0  0  0  0  0  0  0
    5.6976    0.4428    1.8678 H   0  0  0  0  0  0  0  0  0  0  0  0
    6.8121   -0.6329   -0.0591 H   0  0  0  0  0  0  0  0  0  0  0  0
    5.5697   -0.9961   -2.1712 H   0  0  0  0  0  0  0  0  0  0  0  0
    3.2182   -0.2816   -2.3689 H   0  0  0  0  0  0  0  0  0  0  0  0
    1.4268    1.1599   -1.5520 H   0  0  0  0  0  0  0  0  0  0  0  0
    1.4666    1.8506    0.0943 H   0  0  0  0  0  0  0  0  0  0  0  0
    0.9666   -0.4285    1.0622 H   0  0  0  0  0  0  0  0  0  0  0  0
    0.9266   -1.1157   -0.6071 H   0  0  0  0  0  0  0  0  0  0  0  0
   -0.9231    1.1139    0.4735 H   0  0  0  0  0  0  0  0  0  0  0  0
   -0.9645    0.4253   -1.1959 H   0  0  0  0  0  0  0  0  0  0  0  0
   -1.4675   -1.8480   -0.2380 H   0  0  0  0  0  0  0  0  0  0  0  0
   -1.4262   -1.1650    1.4181 H   0  0  0  0  0  0  0  0  0  0  0  0
   -3.3137   -1.2732   -1.7939 H   0  0  0  0  0  0  0  0  0  0  0  0
   -5.6681   -0.5608   -2.0177 H   0  0  0  0  0  0  0  0  0  0  0  0
   -6.8003    0.6108   -0.1493 H   0  0  0  0  0  0  0  0  0  0  0  0
   -5.5686    1.0767    1.9511 H   0  0  0  0  0  0  0  0  0  0  0  0
   -3.2137    0.3721    2.1939 H   0  0  0  0  0  0  0  0  0  0  0  0
  1  2  1  0
  2  3  2  0
  3  4  1  0
  4  5  2  0
  5  6  1  0
  6  7  2  0
  7  8  1  0
  8  9  1  0
  9 10  1  0
 10 11  1  0
 11 12  1  0
 12 13  2  0
 13 14  1  0
 14 15  2  0
 15 16  1  0
 16 17  2  0
  7  2  1  0
 17 12  1  0
  3 18  1  0
  4 19  1  0
  5 20  1  0
  6 21  1  0
  8 22  1  0
  8 23  1  0
  9 24  1  0
  9 25  1  0
 10 26  1  0
 10 27  1  0
 11 28  1  0
 11 29  1  0
 13 30  1  0
 14 31  1  0
 15 32  1  0
 16 33  1  0
 17 34  1  0
M  RAD  1   1   3
M  END
$$$$
