
     RDKit          3D

 34 35  0  0  0  0  0  0  0  0999 V2000
   -3.0582    2.5758    0.1399 N   0  0  0  0  0  1  0  0  0  0  0  0
   -3.7521    1.3448   -0.0516 C   0  0  0  0  0  0  0  0  0  0  0  0
   -5.0612    1.3694   -0.5479 C   0  0  0  0  0  0  0  0  0  0  0  0
   -5.7570    0.1766   -0.7587 C   0  0  0  0  0  0  0  0  0  0  0  0
   -5.1466   -1.0475   -0.4788 C   0  0  0  0  0  0  0  0  0  0  0  0
   -3.8405   -1.0822    0.0170 C   0  0  0  0  0  0  0  0  0  0  0  0
   -3.1343    0.1114    0.2479 C   0  0  0  0  0  0  0  0  0  0  0  0
   -1.7134    0.0481    0.7527 C   0  0  0  0  0  0  0  0  0  0  0  0
   -0.7249    0.0342   -0.4183 C   0  0  0  0  0  0  0  0  0  0  0  0
    0.7222   -0.0310    0.0831 C   0  0  0  0  0  0  0  0  0  0  0  0
    1.7104   -0.0450   -1.0879 C   0  0  0  0  0  0  0  0  0  0  0  0
    3.1272   -0.1087   -0.5835 C   0  0  0  0  0  0  0  0  0  0  0  0
    3.8306    1.0727   -0.2944 C   0  0  0  0  0  0  0  0  0  0  0  0
    5.1353    1.0111    0.2052 C   0  0  0  0  0  0  0  0  0  0  0  0
    5.7422   -0.2279    0.4285 C   0  0  0  0  0  0  0  0  0  0  0  0
    5.0439   -1.4077    0.1565 C   0  0  0  0  0  0  0  0  0  0  0  0
    3.7390   -1.3506   -0.3432 C   0  0  0  0  0  0  0  0  0  0  0  0
   -5.5392    2.3143   -0.7747 H   0  0  0  0  0  0  0  0  0  0  0  0
   -6.7682    0.2011   -1.1439 H   0  0  0  0  0  0  0  0  0  0  0  0
   -5.6847   -1.9710   -0.6495 H   0  0  0  0  0  0  0  0  0  0  0  0
   -3.3785   -2.0406    0.2199 H   0  0  0  0  0  0  0  0  0  0  0  0
   -1.5045    0.9161    1.4151 H   0  0  0  0  0  0  0  0  0  0  0  0
   -1.5729   -0.8678    1.3684 H   0  0  0  0  0  0  0  0  0  0  0  0
   -0.9317   -0.8490   -1.0626 H   0  0  0  0  0  0  0  0  0  0  0  0
   -0.8617    0.9549   -1.0275 H   0  0  0  0  0  0  0  0  0  0  0  0
    0.9286    0.8522    0.7276 H   0  0  0  0  0  0  0  0  0  0  0  0
    0.8600   -0.9524    0.6914 H   0  0  0  0  0  0  0  0  0  0  0  0
    1.5049   -0.9210   -1.7421 H   0  0  0  0  0  0  0  0  0  0  0  0
    1.5728    0.8693   -1.7063 H   0  0  0  0  0  0  0  0  0  0  0  0
    3.3683    2.0390   -0.4542 H   0  0  0  0  0  0  0  0  0  0  0  0
    5.6746    1.9240    0.4225 H   0  0  0  0  0  0  0  0  0  0  0  0
    6.7516   -0.2739    0.8165 H   0  0  0  0  0  0  0  0  0  0  0  0
    5.5125   -2.3666    0.3361 H   0  0  0  0  0  0  0  0  0  0  0  0
    3.2054   -2.2720   -0.5411 H   0  0  0  0  0  0  0  0  0  0  0  0
  1  2  1  0
  2  3  2  0
  3  4  1  0
  4  5  2  0
  5  6  1  0
  6  7  2  0
  7  8  1  0
  8  9  1  0
  9 10  1  0
 10 11  1  0
 11 12  1  0
 12 13  2  0
 13 14  1  0
 14 15  2  0
 15 16  1  0
 16 17  2  0
  7  2  1  0
 17 12  1  0
  3 18  1  0
  4 19  1  0
  5 20  1  0
  6 21  1  0
  8 22  1  0
  8 23  1  0
  9 24  1  0
  9 25  1  0
 10 26  1  0
 10 27  1  0
 11 28  1  0
 11 29  1  0
 13 30  1  0
 14 31  1  0
 15 32  1  0
 16 33  1  0
 17 34  1  0
M  RAD  1   1   3
M  END
$$$$
