
     RDKit          3D

 34 35  0  0  0  0  0  0  0  0999 V2000
   -3.5009    0.5438   -1.7942 N   0  0  0  0  0  1  0  0  0  0  0  0
   -3.9386    0.3063   -0.4580 C   0  0  0  0  0  0  0  0  0  0  0  0
   -5.2451   -0.1465   -0.2381 C   0  0  0  0  0  0  0  0  0  0  0  0
   -5.6932   -0.4010    1.0602 C   0  0  0  0  0  0  0  0  0  0  0  0
   -4.8363   -0.2088    2.1457 C   0  0  0  0  0  0  0  0  0  0  0  0
   -3.5306    0.2432    1.9363 C   0  0  0  0  0  0  0  0  0  0  0  0
   -3.0717    0.5175    0.6359 C   0  0  0  0  0  0  0  0  0  0  0  0
   -1.6475    0.9731    0.4315 C   0  0  0  0  0  0  0  0  0  0  0  0
   -0.7267   -0.2273    0.1870 C   0  0  0  0  0  0  0  0  0  0  0  0
    0.7233    0.2240   -0.0211 C   0  0  0  0  0  0  0  0  0  0  0  0
    1.6438   -0.9764   -0.2654 C   0  0  0  0  0  0  0  0  0  0  0  0
    3.0640   -0.5210   -0.4686 C   0  0  0  0  0  0  0  0  0  0  0  0
    3.5251   -0.1892   -1.7537 C   0  0  0  0  0  0  0  0  0  0  0  0
    4.8351    0.2650   -1.9362 C   0  0  0  0  0  0  0  0  0  0  0  0
    5.6892    0.4001   -0.8382 C   0  0  0  0  0  0  0  0  0  0  0  0
    5.2334    0.0852    0.4450 C   0  0  0  0  0  0  0  0  0  0  0  0
    3.9242   -0.3693    0.6320 C   0  0  0  0  0  0  0  0  0  0  0  0
   -5.9137   -0.3055   -1.0750 H   0  0  0  0  0  0  0  0  0  0  0  0
   -6.7036   -0.7523    1.2246 H   0  0  0  0  0  0  0  0  0  0  0  0
   -5.1829   -0.4133    3.1504 H   0  0  0  0  0  0  0  0  0  0  0  0
   -2.8759    0.3780    2.7886 H   0  0  0  0  0  0  0  0  0  0  0  0
   -1.5911    1.6757   -0.4282 H   0  0  0  0  0  0  0  0  0  0  0  0
   -1.2987    1.5325    1.3277 H   0  0  0  0  0  0  0  0  0  0  0  0
   -0.7774   -0.9127    1.0620 H   0  0  0  0  0  0  0  0  0  0  0  0
   -1.0727   -0.7800   -0.7144 H   0  0  0  0  0  0  0  0  0  0  0  0
    0.7735    0.9097   -0.8959 H   0  0  0  0  0  0  0  0  0  0  0  0
    1.0704    0.7757    0.8807 H   0  0  0  0  0  0  0  0  0  0  0  0
    1.5926   -1.6713    0.6017 H   0  0  0  0  0  0  0  0  0  0  0  0
    1.2980   -1.5385   -1.1608 H   0  0  0  0  0  0  0  0  0  0  0  0
    2.8704   -0.2806   -2.6116 H   0  0  0  0  0  0  0  0  0  0  0  0
    5.1870    0.5156   -2.9286 H   0  0  0  0  0  0  0  0  0  0  0  0
    6.7023    0.7530   -0.9810 H   0  0  0  0  0  0  0  0  0  0  0  0
    5.8937    0.1966    1.2954 H   0  0  0  0  0  0  0  0  0  0  0  0
    3.5804   -0.6011    1.6325 H   0  0  0  0  0  0  0  0  0  0  0  0
  1  2  1  0
  2  3  2  0
  3  4  1  0
  4  5  2  0
  5  6  1  0
  6  7  2  0
  7  8  1  0
  8  9  1  0
  9 10  1  0
 10 11  1  0
 11 12  1  0
 12 13  2  0
 13 14  1  0
 14 15  2  0
 15 16  1  0
 16 17  2  0
  7  2  1  0
 17 12  1  0
  3 18  1  0
  4 19  1  0
  5 20  1  0
  6 21  1  0
  8 22  1  0
  8 23  1  0
  9 24  1  0
  9 25  1  0
 10 26  1  0
 10 27  1  0
 11 28  1  0
 11 29  1  0
 13 30  1  0
 14 31  1  0
 15 32  1  0
 16 33  1  0
 17 34  1  0
M  RAD  1   1   3
M  END
$$$$
