
     RDKit          3D

 34 35  0  0  0  0  0  0  0  0999 V2000
    3.0051    1.7192    1.9114 N   0  0  0  0  0  1  0  0  0  0  0  0
    3.7183    1.0501    0.8736 C   0  0  0  0  0  0  0  0  0  0  0  0
    5.0699    0.7389    1.0654 C   0  0  0  0  0  0  0  0  0  0  0  0
    5.7868    0.0704    0.0702 C   0  0  0  0  0  0  0  0  0  0  0  0
    5.1555   -0.2949   -1.1203 C   0  0  0  0  0  0  0  0  0  0  0  0
    3.8069    0.0115   -1.3211 C   0  0  0  0  0  0  0  0  0  0  0  0
    3.0777    0.6973   -0.3338 C   0  0  0  0  0  0  0  0  0  0  0  0
    1.6140    0.9883   -0.5593 C   0  0  0  0  0  0  0  0  0  0  0  0
    0.7462   -0.1431    0.0022 C   0  0  0  0  0  0  0  0  0  0  0  0
   -0.7431    0.1417   -0.2224 C   0  0  0  0  0  0  0  0  0  0  0  0
   -1.6107   -0.9898    0.3389 C   0  0  0  0  0  0  0  0  0  0  0  0
   -3.0702   -0.6989    0.1131 C   0  0  0  0  0  0  0  0  0  0  0  0
   -3.6989   -1.1075   -1.0752 C   0  0  0  0  0  0  0  0  0  0  0  0
   -5.0466   -0.8078   -1.2977 C   0  0  0  0  0  0  0  0  0  0  0  0
   -5.7721   -0.0912   -0.3419 C   0  0  0  0  0  0  0  0  0  0  0  0
   -5.1499    0.3307    0.8364 C   0  0  0  0  0  0  0  0  0  0  0  0
   -3.8024    0.0331    1.0629 C   0  0  0  0  0  0  0  0  0  0  0  0
    5.5651    1.0119    1.9890 H   0  0  0  0  0  0  0  0  0  0  0  0
    6.8311   -0.1691    0.2241 H   0  0  0  0  0  0  0  0  0  0  0  0
    5.7107   -0.8192   -1.8874 H   0  0  0  0  0  0  0  0  0  0  0  0
    3.3300   -0.2874   -2.2465 H   0  0  0  0  0  0  0  0  0  0  0  0
    1.3380    1.9521   -0.0789 H   0  0  0  0  0  0  0  0  0  0  0  0
    1.4162    1.1031   -1.6481 H   0  0  0  0  0  0  0  0  0  0  0  0
    0.9397   -0.2502    1.0924 H   0  0  0  0  0  0  0  0  0  0  0  0
    1.0185   -1.0980   -0.4999 H   0  0  0  0  0  0  0  0  0  0  0  0
   -0.9376    0.2475   -1.3128 H   0  0  0  0  0  0  0  0  0  0  0  0
   -1.0150    1.0968    0.2795 H   0  0  0  0  0  0  0  0  0  0  0  0
   -1.3388   -1.9502   -0.1520 H   0  0  0  0  0  0  0  0  0  0  0  0
   -1.4154   -1.1079    1.4277 H   0  0  0  0  0  0  0  0  0  0  0  0
   -3.1455   -1.6554   -1.8279 H   0  0  0  0  0  0  0  0  0  0  0  0
   -5.5277   -1.1282   -2.2128 H   0  0  0  0  0  0  0  0  0  0  0  0
   -6.8147    0.1411   -0.5163 H   0  0  0  0  0  0  0  0  0  0  0  0
   -5.7109    0.8914    1.5728 H   0  0  0  0  0  0  0  0  0  0  0  0
   -3.3296    0.3738    1.9758 H   0  0  0  0  0  0  0  0  0  0  0  0
  1  2  1  0
  2  3  2  0
  3  4  1  0
  4  5  2  0
  5  6  1  0
  6  7  2  0
  7  8  1  0
  8  9  1  0
  9 10  1  0
 10 11  1  0
 11 12  1  0
 12 13  2  0
 13 14  1  0
 14 15  2  0
 15 16  1  0
 16 17  2  0
  7  2  1  0
 17 12  1  0
  3 18  1  0
  4 19  1  0
  5 20  1  0
  6 21  1  0
  8 22  1  0
  8 23  1  0
  9 24  1  0
  9 25  1  0
 10 26  1  0
 10 27  1  0
 11 28  1  0
 11 29  1  0
 13 30  1  0
 14 31  1  0
 15 32  1  0
 16 33  1  0
 17 34  1  0
M  RAD  1   1   3
M  END
$$$$
