
     RDKit          3D

 34 35  0  0  0  0  0  0  0  0999 V2000
    3.0297    2.1595    1.3633 N   0  0  0  0  0  1  0  0  0  0  0  0
    3.7370    1.1736    0.6140 C   0  0  0  0  0  0  0  0  0  0  0  0
    5.0679    0.8905    0.9440 C   0  0  0  0  0  0  0  0  0  0  0  0
    5.7778   -0.0816    0.2352 C   0  0  0  0  0  0  0  0  0  0  0  0
    5.1599   -0.7793   -0.8043 C   0  0  0  0  0  0  0  0  0  0  0  0
    3.8319   -0.5037   -1.1412 C   0  0  0  0  0  0  0  0  0  0  0  0
    3.1107    0.4828   -0.4458 C   0  0  0  0  0  0  0  0  0  0  0  0
    1.6678    0.7401   -0.8056 C   0  0  0  0  0  0  0  0  0  0  0  0
    0.7359   -0.1264    0.0484 C   0  0  0  0  0  0  0  0  0  0  0  0
   -0.7330    0.1263   -0.3096 C   0  0  0  0  0  0  0  0  0  0  0  0
   -1.6646   -0.7403    0.5443 C   0  0  0  0  0  0  0  0  0  0  0  0
   -3.1034   -0.4834    0.1844 C   0  0  0  0  0  0  0  0  0  0  0  0
   -3.8246    0.5353    0.8297 C   0  0  0  0  0  0  0  0  0  0  0  0
   -5.1512    0.7944    0.4712 C   0  0  0  0  0  0  0  0  0  0  0  0
   -5.7629    0.0466   -0.5387 C   0  0  0  0  0  0  0  0  0  0  0  0
   -5.0476   -0.9591   -1.1948 C   0  0  0  0  0  0  0  0  0  0  0  0
   -3.7208   -1.2215   -0.8395 C   0  0  0  0  0  0  0  0  0  0  0  0
    5.5523    1.4217    1.7539 H   0  0  0  0  0  0  0  0  0  0  0  0
    6.8060   -0.2976    0.4953 H   0  0  0  0  0  0  0  0  0  0  0  0
    5.7092   -1.5372   -1.3477 H   0  0  0  0  0  0  0  0  0  0  0  0
    3.3647   -1.0607   -1.9441 H   0  0  0  0  0  0  0  0  0  0  0  0
    1.5020    0.5144   -1.8823 H   0  0  0  0  0  0  0  0  0  0  0  0
    1.4242    1.8152   -0.6612 H   0  0  0  0  0  0  0  0  0  0  0  0
    0.9767   -1.1996   -0.1196 H   0  0  0  0  0  0  0  0  0  0  0  0
    0.8976    0.1072    1.1239 H   0  0  0  0  0  0  0  0  0  0  0  0
   -0.9734    1.1997   -0.1418 H   0  0  0  0  0  0  0  0  0  0  0  0
   -0.8958   -0.1085   -1.3849 H   0  0  0  0  0  0  0  0  0  0  0  0
   -1.4248   -1.8153    0.3886 H   0  0  0  0  0  0  0  0  0  0  0  0
   -1.5016   -0.5177    1.6219 H   0  0  0  0  0  0  0  0  0  0  0  0
   -3.3592    1.1282    1.6075 H   0  0  0  0  0  0  0  0  0  0  0  0
   -5.7040    1.5774    0.9740 H   0  0  0  0  0  0  0  0  0  0  0  0
   -6.7893    0.2493   -0.8159 H   0  0  0  0  0  0  0  0  0  0  0  0
   -5.5203   -1.5331   -1.9813 H   0  0  0  0  0  0  0  0  0  0  0  0
   -3.1747   -1.9972   -1.3619 H   0  0  0  0  0  0  0  0  0  0  0  0
  1  2  1  0
  2  3  2  0
  3  4  1  0
  4  5  2  0
  5  6  1  0
  6  7  2  0
  7  8  1  0
  8  9  1  0
  9 10  1  0
 10 11  1  0
 11 12  1  0
 12 13  2  0
 13 14  1  0
 14 15  2  0
 15 16  1  0
 16 17  2  0
  7  2  1  0
 17 12  1  0
  3 18  1  0
  4 19  1  0
  5 20  1  0
  6 21  1  0
  8 22  1  0
  8 23  1  0
  9 24  1  0
  9 25  1  0
 10 26  1  0
 10 27  1  0
 11 28  1  0
 11 29  1  0
 13 30  1  0
 14 31  1  0
 15 32  1  0
 16 33  1  0
 17 34  1  0
M  RAD  1   1   3
M  END
$$$$
