
     RDKit          3D

 34 35  0  0  0  0  0  0  0  0999 V2000
   -2.9766    1.2744   -2.3657 N   0  0  0  0  0  1  0  0  0  0  0  0
   -3.7042    0.5699   -1.3618 C   0  0  0  0  0  0  0  0  0  0  0  0
   -5.0531    0.8809   -1.1518 C   0  0  0  0  0  0  0  0  0  0  0  0
   -5.7837    0.2157   -0.1644 C   0  0  0  0  0  0  0  0  0  0  0  0
   -5.1689   -0.7606    0.6218 C   0  0  0  0  0  0  0  0  0  0  0  0
   -3.8230   -1.0781    0.4195 C   0  0  0  0  0  0  0  0  0  0  0  0
   -3.0802   -0.4269   -0.5810 C   0  0  0  0  0  0  0  0  0  0  0  0
   -1.6197   -0.7630   -0.7591 C   0  0  0  0  0  0  0  0  0  0  0  0
   -0.7446    0.1689    0.0862 C   0  0  0  0  0  0  0  0  0  0  0  0
    0.7416   -0.1643   -0.0864 C   0  0  0  0  0  0  0  0  0  0  0  0
    1.6164    0.7675    0.7589 C   0  0  0  0  0  0  0  0  0  0  0  0
    3.0728    0.4312    0.5810 C   0  0  0  0  0  0  0  0  0  0  0  0
    3.8181    1.0304   -0.4485 C   0  0  0  0  0  0  0  0  0  0  0  0
    5.1625    0.6924   -0.6329 C   0  0  0  0  0  0  0  0  0  0  0  0
    5.7684   -0.2514    0.2011 C   0  0  0  0  0  0  0  0  0  0  0  0
    5.0298   -0.8619    1.2185 C   0  0  0  0  0  0  0  0  0  0  0  0
    3.6851   -0.5268    1.4064 C   0  0  0  0  0  0  0  0  0  0  0  0
   -5.5356    1.6421   -1.7521 H   0  0  0  0  0  0  0  0  0  0  0  0
   -6.8259    0.4609   -0.0051 H   0  0  0  0  0  0  0  0  0  0  0  0
   -5.7346   -1.2699    1.3913 H   0  0  0  0  0  0  0  0  0  0  0  0
   -3.3589   -1.8313    1.0444 H   0  0  0  0  0  0  0  0  0  0  0  0
   -1.3368   -0.6800   -1.8310 H   0  0  0  0  0  0  0  0  0  0  0  0
   -1.4367   -1.8184   -0.4587 H   0  0  0  0  0  0  0  0  0  0  0  0
   -1.0240    0.0625    1.1579 H   0  0  0  0  0  0  0  0  0  0  0  0
   -0.9233    1.2228   -0.2219 H   0  0  0  0  0  0  0  0  0  0  0  0
    1.0206   -0.0581   -1.1583 H   0  0  0  0  0  0  0  0  0  0  0  0
    0.9212   -1.2179    0.2229 H   0  0  0  0  0  0  0  0  0  0  0  0
    1.4360    1.8241    0.4615 H   0  0  0  0  0  0  0  0  0  0  0  0
    1.3376    0.6734    1.8316 H   0  0  0  0  0  0  0  0  0  0  0  0
    3.3579    1.7563   -1.1074 H   0  0  0  0  0  0  0  0  0  0  0  0
    5.7336    1.1596   -1.4247 H   0  0  0  0  0  0  0  0  0  0  0  0
    6.8086   -0.5128    0.0561 H   0  0  0  0  0  0  0  0  0  0  0  0
    5.4983   -1.5975    1.8595 H   0  0  0  0  0  0  0  0  0  0  0  0
    3.1214   -1.0140    2.1924 H   0  0  0  0  0  0  0  0  0  0  0  0
  1  2  1  0
  2  3  2  0
  3  4  1  0
  4  5  2  0
  5  6  1  0
  6  7  2  0
  7  8  1  0
  8  9  1  0
  9 10  1  0
 10 11  1  0
 11 12  1  0
 12 13  2  0
 13 14  1  0
 14 15  2  0
 15 16  1  0
 16 17  2  0
  7  2  1  0
 17 12  1  0
  3 18  1  0
  4 19  1  0
  5 20  1  0
  6 21  1  0
  8 22  1  0
  8 23  1  0
  9 24  1  0
  9 25  1  0
 10 26  1  0
 10 27  1  0
 11 28  1  0
 11 29  1  0
 13 30  1  0
 14 31  1  0
 15 32  1  0
 16 33  1  0
 17 34  1  0
M  RAD  1   1   3
M  END
$$$$
