
     RDKit          3D

 34 35  0  0  0  0  0  0  0  0999 V2000
   -1.9722   -2.2762   -0.8270 N   0  0  0  0  0  1  0  0  0  0  0  0
   -2.8451   -1.3184   -0.2331 C   0  0  0  0  0  0  0  0  0  0  0  0
   -4.1785   -1.2618   -0.6568 C   0  0  0  0  0  0  0  0  0  0  0  0
   -5.0589   -0.3360   -0.0929 C   0  0  0  0  0  0  0  0  0  0  0  0
   -4.6121    0.5387    0.8986 C   0  0  0  0  0  0  0  0  0  0  0  0
   -3.2835    0.4906    1.3283 C   0  0  0  0  0  0  0  0  0  0  0  0
   -2.3851   -0.4366    0.7703 C   0  0  0  0  0  0  0  0  0  0  0  0
   -0.9485   -0.4461    1.2442 C   0  0  0  0  0  0  0  0  0  0  0  0
   -0.1456    0.7432    0.6886 C   0  0  0  0  0  0  0  0  0  0  0  0
    0.0666    0.7034   -0.8376 C   0  0  0  0  0  0  0  0  0  0  0  0
    1.0201   -0.4061   -1.3141 C   0  0  0  0  0  0  0  0  0  0  0  0
    2.4193   -0.2239   -0.7835 C   0  0  0  0  0  0  0  0  0  0  0  0
    3.2692    0.7425   -1.3473 C   0  0  0  0  0  0  0  0  0  0  0  0
    4.5596    0.9271   -0.8412 C   0  0  0  0  0  0  0  0  0  0  0  0
    5.0087    0.1525    0.2318 C   0  0  0  0  0  0  0  0  0  0  0  0
    4.1677   -0.8073    0.8015 C   0  0  0  0  0  0  0  0  0  0  0  0
    2.8768   -0.9957    0.2983 C   0  0  0  0  0  0  0  0  0  0  0  0
   -4.5337   -1.9369   -1.4254 H   0  0  0  0  0  0  0  0  0  0  0  0
   -6.0884   -0.2969   -0.4248 H   0  0  0  0  0  0  0  0  0  0  0  0
   -5.2955    1.2561    1.3343 H   0  0  0  0  0  0  0  0  0  0  0  0
   -2.9528    1.1783    2.0969 H   0  0  0  0  0  0  0  0  0  0  0  0
   -0.9449   -0.3780    2.3539 H   0  0  0  0  0  0  0  0  0  0  0  0
   -0.4430   -1.4035    1.0043 H   0  0  0  0  0  0  0  0  0  0  0  0
   -0.6753    1.6865    0.9448 H   0  0  0  0  0  0  0  0  0  0  0  0
    0.8367    0.7896    1.2043 H   0  0  0  0  0  0  0  0  0  0  0  0
    0.4735    1.6862   -1.1611 H   0  0  0  0  0  0  0  0  0  0  0  0
   -0.9122    0.5840   -1.3490 H   0  0  0  0  0  0  0  0  0  0  0  0
    0.6245   -1.4049   -1.0376 H   0  0  0  0  0  0  0  0  0  0  0  0
    1.0544   -0.3862   -2.4251 H   0  0  0  0  0  0  0  0  0  0  0  0
    2.9312    1.3521   -2.1762 H   0  0  0  0  0  0  0  0  0  0  0  0
    5.2108    1.6721   -1.2798 H   0  0  0  0  0  0  0  0  0  0  0  0
    6.0074    0.2974    0.6231 H   0  0  0  0  0  0  0  0  0  0  0  0
    4.5153   -1.4041    1.6348 H   0  0  0  0  0  0  0  0  0  0  0  0
    2.2335   -1.7379    0.7543 H   0  0  0  0  0  0  0  0  0  0  0  0
  1  2  1  0
  2  3  2  0
  3  4  1  0
  4  5  2  0
  5  6  1  0
  6  7  2  0
  7  8  1  0
  8  9  1  0
  9 10  1  0
 10 11  1  0
 11 12  1  0
 12 13  2  0
 13 14  1  0
 14 15  2  0
 15 16  1  0
 16 17  2  0
  7  2  1  0
 17 12  1  0
  3 18  1  0
  4 19  1  0
  5 20  1  0
  6 21  1  0
  8 22  1  0
  8 23  1  0
  9 24  1  0
  9 25  1  0
 10 26  1  0
 10 27  1  0
 11 28  1  0
 11 29  1  0
 13 30  1  0
 14 31  1  0
 15 32  1  0
 16 33  1  0
 17 34  1  0
M  RAD  1   1   3
M  END
$$$$
