
     RDKit          3D

 32 33  0  0  0  0  0  0  0  0999 V2000
    5.2936   -0.1392   -0.8808 C   0  0  0  0  0  0  0  0  0  0  0  0
    4.2512    0.7840   -0.5831 O   0  0  0  0  0  0  0  0  0  0  0  0
    2.9842    0.4197   -0.1039 C   0  0  0  0  0  0  0  0  0  0  0  0
    2.6235   -0.9196    0.1357 C   0  0  0  0  0  0  0  0  0  0  0  0
    1.3465   -1.2318    0.6110 C   0  0  0  0  0  0  0  0  0  0  0  0
    0.4033   -0.2164    0.8377 C   0  0  0  0  0  0  0  0  0  0  0  0
   -0.9636   -0.5572    1.3776 C   0  0  0  0  0  0  0  0  0  0  0  0
   -2.0769    0.0674    0.5599 C   0  0  0  0  0  0  0  0  0  0  0  0
   -2.7456    1.1837    1.0991 C   0  0  0  0  0  0  0  0  0  0  0  0
   -3.7657    1.8177    0.3910 C   0  0  0  0  0  0  0  0  0  0  0  0
   -4.1325    1.3535   -0.8689 C   0  0  0  0  0  0  0  0  0  0  0  0
   -3.4812    0.2531   -1.4259 C   0  0  0  0  0  0  0  0  0  0  0  0
   -2.4549   -0.4072   -0.7276 C   0  0  0  0  0  0  0  0  0  0  0  0
   -1.6593   -1.7823   -1.5181 S   0  0  0  0  0  0  0  0  0  0  0  0
   -2.5665   -2.2857   -2.9008 N   0  0  0  0  0  1  0  0  0  0  0  0
   -0.2853   -1.3786   -1.9711 O   0  0  0  0  0  0  0  0  0  0  0  0
   -1.5628   -2.9512   -0.5797 O   0  0  0  0  0  0  0  0  0  0  0  0
    0.7744    1.1211    0.6209 C   0  0  0  0  0  0  0  0  0  0  0  0
    2.0514    1.4322    0.1461 C   0  0  0  0  0  0  0  0  0  0  0  0
    6.1805    0.4199   -1.2431 H   0  0  0  0  0  0  0  0  0  0  0  0
    5.5773   -0.7025    0.0331 H   0  0  0  0  0  0  0  0  0  0  0  0
    4.9662   -0.8412   -1.6766 H   0  0  0  0  0  0  0  0  0  0  0  0
    3.3224   -1.7260   -0.0398 H   0  0  0  0  0  0  0  0  0  0  0  0
    1.0916   -2.2685    0.7930 H   0  0  0  0  0  0  0  0  0  0  0  0
   -1.0080   -0.2043    2.4309 H   0  0  0  0  0  0  0  0  0  0  0  0
   -1.1149   -1.6529    1.4395 H   0  0  0  0  0  0  0  0  0  0  0  0
   -2.4726    1.5716    2.0729 H   0  0  0  0  0  0  0  0  0  0  0  0
   -4.2698    2.6747    0.8190 H   0  0  0  0  0  0  0  0  0  0  0  0
   -4.9211    1.8507   -1.4191 H   0  0  0  0  0  0  0  0  0  0  0  0
   -3.7804   -0.0760   -2.4116 H   0  0  0  0  0  0  0  0  0  0  0  0
    0.0757    1.9242    0.8178 H   0  0  0  0  0  0  0  0  0  0  0  0
    2.3194    2.4671   -0.0254 H   0  0  0  0  0  0  0  0  0  0  0  0
  1  2  1  0
  2  3  1  0
  3  4  1  0
  4  5  2  0
  5  6  1  0
  6  7  1  0
  7  8  1  0
  8  9  2  0
  9 10  1  0
 10 11  2  0
 11 12  1  0
 12 13  2  0
 13 14  1  0
 14 15  1  0
 14 16  2  0
 14 17  2  0
  6 18  2  0
 18 19  1  0
 19  3  2  0
 13  8  1  0
  1 20  1  0
  1 21  1  0
  1 22  1  0
  4 23  1  0
  5 24  1  0
  7 25  1  0
  7 26  1  0
  9 27  1  0
 10 28  1  0
 11 29  1  0
 12 30  1  0
 18 31  1  0
 19 32  1  0
M  RAD  1  15   3
M  END
$$$$
