
     RDKit          3D

 32 33  0  0  0  0  0  0  0  0999 V2000
    5.0063    1.7131    0.9185 C   0  0  0  0  0  0  0  0  0  0  0  0
    4.2866    0.5165    0.6398 O   0  0  0  0  0  0  0  0  0  0  0  0
    2.9754    0.4789    0.1428 C   0  0  0  0  0  0  0  0  0  0  0  0
    2.3861   -0.7696   -0.0850 C   0  0  0  0  0  0  0  0  0  0  0  0
    1.0809   -0.8607   -0.5761 C   0  0  0  0  0  0  0  0  0  0  0  0
    0.3351    0.3021   -0.8319 C   0  0  0  0  0  0  0  0  0  0  0  0
   -1.0637    0.2111   -1.3895 C   0  0  0  0  0  0  0  0  0  0  0  0
   -1.9548   -0.6941   -0.5619 C   0  0  0  0  0  0  0  0  0  0  0  0
   -2.2571   -1.9707   -1.0743 C   0  0  0  0  0  0  0  0  0  0  0  0
   -3.0549   -2.8600   -0.3554 C   0  0  0  0  0  0  0  0  0  0  0  0
   -3.5599   -2.4940    0.8889 C   0  0  0  0  0  0  0  0  0  0  0  0
   -3.2698   -1.2372    1.4195 C   0  0  0  0  0  0  0  0  0  0  0  0
   -2.4740   -0.3208    0.7098 C   0  0  0  0  0  0  0  0  0  0  0  0
   -2.1302    1.2467    1.4671 S   0  0  0  0  0  0  0  0  0  0  0  0
   -3.1648    1.4936    2.8298 N   0  0  0  0  0  1  0  0  0  0  0  0
   -0.7048    1.2775    1.9396 O   0  0  0  0  0  0  0  0  0  0  0  0
   -2.3694    2.3688    0.4976 O   0  0  0  0  0  0  0  0  0  0  0  0
    0.9339    1.5557   -0.6274 C   0  0  0  0  0  0  0  0  0  0  0  0
    2.2394    1.6460   -0.1357 C   0  0  0  0  0  0  0  0  0  0  0  0
    5.1242    2.3125   -0.0088 H   0  0  0  0  0  0  0  0  0  0  0  0
    4.4753    2.3064    1.6926 H   0  0  0  0  0  0  0  0  0  0  0  0
    6.0134    1.4496    1.3015 H   0  0  0  0  0  0  0  0  0  0  0  0
    2.9448   -1.6748    0.1165 H   0  0  0  0  0  0  0  0  0  0  0  0
    0.6528   -1.8388   -0.7552 H   0  0  0  0  0  0  0  0  0  0  0  0
   -0.9873   -0.1648   -2.4330 H   0  0  0  0  0  0  0  0  0  0  0  0
   -1.5305    1.2116   -1.4824 H   0  0  0  0  0  0  0  0  0  0  0  0
   -1.8682   -2.2845   -2.0354 H   0  0  0  0  0  0  0  0  0  0  0  0
   -3.2778   -3.8378   -0.7628 H   0  0  0  0  0  0  0  0  0  0  0  0
   -4.1745   -3.1882    1.4476 H   0  0  0  0  0  0  0  0  0  0  0  0
   -3.6665   -0.9870    2.3940 H   0  0  0  0  0  0  0  0  0  0  0  0
    0.3873    2.4663   -0.8394 H   0  0  0  0  0  0  0  0  0  0  0  0
    2.6669    2.6266    0.0219 H   0  0  0  0  0  0  0  0  0  0  0  0
  1  2  1  0
  2  3  1  0
  3  4  1  0
  4  5  2  0
  5  6  1  0
  6  7  1  0
  7  8  1  0
  8  9  2  0
  9 10  1  0
 10 11  2  0
 11 12  1  0
 12 13  2  0
 13 14  1  0
 14 15  1  0
 14 16  2  0
 14 17  2  0
  6 18  2  0
 18 19  1  0
 19  3  2  0
 13  8  1  0
  1 20  1  0
  1 21  1  0
  1 22  1  0
  4 23  1  0
  5 24  1  0
  7 25  1  0
  7 26  1  0
  9 27  1  0
 10 28  1  0
 11 29  1  0
 12 30  1  0
 18 31  1  0
 19 32  1  0
M  RAD  1  15   3
M  END
$$$$
