
     RDKit          3D

 32 33  0  0  0  0  0  0  0  0999 V2000
    5.5054    0.6339    0.0615 C   0  0  0  0  0  0  0  0  0  0  0  0
    4.3214    1.2577    0.5479 O   0  0  0  0  0  0  0  0  0  0  0  0
    3.0567    0.6510    0.5652 C   0  0  0  0  0  0  0  0  0  0  0  0
    1.9756    1.3813    1.0714 C   0  0  0  0  0  0  0  0  0  0  0  0
    0.6956    0.8217    1.1099 C   0  0  0  0  0  0  0  0  0  0  0  0
    0.4778   -0.4836    0.6429 C   0  0  0  0  0  0  0  0  0  0  0  0
   -0.9080   -1.0795    0.6716 C   0  0  0  0  0  0  0  0  0  0  0  0
   -1.8165   -0.4041   -0.3373 C   0  0  0  0  0  0  0  0  0  0  0  0
   -1.4375   -0.4436   -1.6936 C   0  0  0  0  0  0  0  0  0  0  0  0
   -2.2188    0.1675   -2.6737 C   0  0  0  0  0  0  0  0  0  0  0  0
   -3.3975    0.8183   -2.3201 C   0  0  0  0  0  0  0  0  0  0  0  0
   -3.8061    0.8498   -0.9868 C   0  0  0  0  0  0  0  0  0  0  0  0
   -3.0363    0.2369    0.0177 C   0  0  0  0  0  0  0  0  0  0  0  0
   -3.6525    0.2658    1.6801 S   0  0  0  0  0  0  0  0  0  0  0  0
   -2.5682    1.1440    2.6982 N   0  0  0  0  0  1  0  0  0  0  0  0
   -4.9978    0.9348    1.7275 O   0  0  0  0  0  0  0  0  0  0  0  0
   -3.8016   -1.1407    2.1881 O   0  0  0  0  0  0  0  0  0  0  0  0
    1.5596   -1.2178    0.1312 C   0  0  0  0  0  0  0  0  0  0  0  0
    2.8399   -0.6574    0.0928 C   0  0  0  0  0  0  0  0  0  0  0  0
    6.3558    1.3381    0.1670 H   0  0  0  0  0  0  0  0  0  0  0  0
    5.7254   -0.2805    0.6521 H   0  0  0  0  0  0  0  0  0  0  0  0
    5.3878    0.3766   -1.0124 H   0  0  0  0  0  0  0  0  0  0  0  0
    2.1283    2.3897    1.4348 H   0  0  0  0  0  0  0  0  0  0  0  0
   -0.1263    1.4086    1.4977 H   0  0  0  0  0  0  0  0  0  0  0  0
   -0.8717   -2.1656    0.4371 H   0  0  0  0  0  0  0  0  0  0  0  0
   -1.2846   -1.0073    1.7083 H   0  0  0  0  0  0  0  0  0  0  0  0
   -0.5265   -0.9468   -1.9934 H   0  0  0  0  0  0  0  0  0  0  0  0
   -1.9089    0.1356   -3.7103 H   0  0  0  0  0  0  0  0  0  0  0  0
   -4.0021    1.2925   -3.0824 H   0  0  0  0  0  0  0  0  0  0  0  0
   -4.7339    1.3507   -0.7441 H   0  0  0  0  0  0  0  0  0  0  0  0
    1.4129   -2.2238   -0.2421 H   0  0  0  0  0  0  0  0  0  0  0  0
    3.6525   -1.2485   -0.3070 H   0  0  0  0  0  0  0  0  0  0  0  0
  1  2  1  0
  2  3  1  0
  3  4  1  0
  4  5  2  0
  5  6  1  0
  6  7  1  0
  7  8  1  0
  8  9  2  0
  9 10  1  0
 10 11  2  0
 11 12  1  0
 12 13  2  0
 13 14  1  0
 14 15  1  0
 14 16  2  0
 14 17  2  0
  6 18  2  0
 18 19  1  0
 19  3  2  0
 13  8  1  0
  1 20  1  0
  1 21  1  0
  1 22  1  0
  4 23  1  0
  5 24  1  0
  7 25  1  0
  7 26  1  0
  9 27  1  0
 10 28  1  0
 11 29  1  0
 12 30  1  0
 18 31  1  0
 19 32  1  0
M  RAD  1  15   3
M  END
$$$$
