
     RDKit          3D

 32 33  0  0  0  0  0  0  0  0999 V2000
    5.2621    0.4884    0.9905 C   0  0  0  0  0  0  0  0  0  0  0  0
    4.1988    1.1176    0.2827 O   0  0  0  0  0  0  0  0  0  0  0  0
    2.9655    0.5105    0.0030 C   0  0  0  0  0  0  0  0  0  0  0  0
    2.6640   -0.8055    0.4012 C   0  0  0  0  0  0  0  0  0  0  0  0
    1.4187   -1.3652    0.1009 C   0  0  0  0  0  0  0  0  0  0  0  0
    0.4482   -0.6166   -0.5846 C   0  0  0  0  0  0  0  0  0  0  0  0
   -0.8832   -1.2358   -0.9307 C   0  0  0  0  0  0  0  0  0  0  0  0
   -2.0496   -0.3625   -0.5123 C   0  0  0  0  0  0  0  0  0  0  0  0
   -2.7374    0.3460   -1.5167 C   0  0  0  0  0  0  0  0  0  0  0  0
   -3.8069    1.1820   -1.1983 C   0  0  0  0  0  0  0  0  0  0  0  0
   -4.2050    1.3306    0.1272 C   0  0  0  0  0  0  0  0  0  0  0  0
   -3.5358    0.6435    1.1398 C   0  0  0  0  0  0  0  0  0  0  0  0
   -2.4596   -0.2110    0.8423 C   0  0  0  0  0  0  0  0  0  0  0  0
   -1.6452   -1.0271    2.1912 S   0  0  0  0  0  0  0  0  0  0  0  0
   -2.5862   -0.8840    3.6342 N   0  0  0  0  0  1  0  0  0  0  0  0
   -0.3056   -0.3915    2.4313 O   0  0  0  0  0  0  0  0  0  0  0  0
   -1.4695   -2.4899    1.8987 O   0  0  0  0  0  0  0  0  0  0  0  0
    0.7612    0.6879   -1.0019 C   0  0  0  0  0  0  0  0  0  0  0  0
    2.0065    1.2464   -0.7015 C   0  0  0  0  0  0  0  0  0  0  0  0
    6.1130    1.1954    1.0699 H   0  0  0  0  0  0  0  0  0  0  0  0
    4.9300    0.2149    2.0143 H   0  0  0  0  0  0  0  0  0  0  0  0
    5.6015   -0.4167    0.4439 H   0  0  0  0  0  0  0  0  0  0  0  0
    3.3846   -1.4047    0.9406 H   0  0  0  0  0  0  0  0  0  0  0  0
    1.2093   -2.3810    0.4125 H   0  0  0  0  0  0  0  0  0  0  0  0
   -0.9916   -2.2436   -0.4834 H   0  0  0  0  0  0  0  0  0  0  0  0
   -0.8996   -1.4090   -2.0287 H   0  0  0  0  0  0  0  0  0  0  0  0
   -2.4414    0.2564   -2.5548 H   0  0  0  0  0  0  0  0  0  0  0  0
   -4.3251    1.7199   -1.9817 H   0  0  0  0  0  0  0  0  0  0  0  0
   -5.0321    1.9844    0.3725 H   0  0  0  0  0  0  0  0  0  0  0  0
   -3.8607    0.7894    2.1609 H   0  0  0  0  0  0  0  0  0  0  0  0
    0.0416    1.2743   -1.5588 H   0  0  0  0  0  0  0  0  0  0  0  0
    2.2294    2.2564   -1.0215 H   0  0  0  0  0  0  0  0  0  0  0  0
  1  2  1  0
  2  3  1  0
  3  4  1  0
  4  5  2  0
  5  6  1  0
  6  7  1  0
  7  8  1  0
  8  9  2  0
  9 10  1  0
 10 11  2  0
 11 12  1  0
 12 13  2  0
 13 14  1  0
 14 15  1  0
 14 16  2  0
 14 17  2  0
  6 18  2  0
 18 19  1  0
 19  3  2  0
 13  8  1  0
  1 20  1  0
  1 21  1  0
  1 22  1  0
  4 23  1  0
  5 24  1  0
  7 25  1  0
  7 26  1  0
  9 27  1  0
 10 28  1  0
 11 29  1  0
 12 30  1  0
 18 31  1  0
 19 32  1  0
M  RAD  1  15   3
M  END
$$$$
