
     RDKit          3D

 32 33  0  0  0  0  0  0  0  0999 V2000
    5.5109   -0.1181   -0.5271 C   0  0  0  0  0  0  0  0  0  0  0  0
    4.3539   -0.9078   -0.7824 O   0  0  0  0  0  0  0  0  0  0  0  0
    3.0819   -0.6425   -0.2539 C   0  0  0  0  0  0  0  0  0  0  0  0
    2.8296    0.4523    0.5947 C   0  0  0  0  0  0  0  0  0  0  0  0
    1.5434    0.6744    1.0956 C   0  0  0  0  0  0  0  0  0  0  0  0
    0.4909   -0.1924    0.7604 C   0  0  0  0  0  0  0  0  0  0  0  0
   -0.9016    0.0530    1.2867 C   0  0  0  0  0  0  0  0  0  0  0  0
   -1.8347    0.5039    0.1799 C   0  0  0  0  0  0  0  0  0  0  0  0
   -1.5040    1.6805   -0.5209 C   0  0  0  0  0  0  0  0  0  0  0  0
   -2.3100    2.1466   -1.5589 C   0  0  0  0  0  0  0  0  0  0  0  0
   -3.4660    1.4542   -1.9085 C   0  0  0  0  0  0  0  0  0  0  0  0
   -3.8273    0.3001   -1.2134 C   0  0  0  0  0  0  0  0  0  0  0  0
   -3.0319   -0.1858   -0.1606 C   0  0  0  0  0  0  0  0  0  0  0  0
   -3.5892   -1.6232    0.7156 S   0  0  0  0  0  0  0  0  0  0  0  0
   -2.4573   -2.9128    0.5181 N   0  0  0  0  0  1  0  0  0  0  0  0
   -4.9221   -2.0739    0.1867 O   0  0  0  0  0  0  0  0  0  0  0  0
   -3.7410   -1.2979    2.1750 O   0  0  0  0  0  0  0  0  0  0  0  0
    0.7440   -1.2809   -0.0884 C   0  0  0  0  0  0  0  0  0  0  0  0
    2.0299   -1.5025   -0.5888 C   0  0  0  0  0  0  0  0  0  0  0  0
    6.3747   -0.5548   -1.0688 H   0  0  0  0  0  0  0  0  0  0  0  0
    5.7381   -0.1139    0.5600 H   0  0  0  0  0  0  0  0  0  0  0  0
    5.3522    0.9198   -0.8887 H   0  0  0  0  0  0  0  0  0  0  0  0
    3.6190    1.1376    0.8715 H   0  0  0  0  0  0  0  0  0  0  0  0
    1.3690    1.5253    1.7424 H   0  0  0  0  0  0  0  0  0  0  0  0
   -0.8894    0.8373    2.0746 H   0  0  0  0  0  0  0  0  0  0  0  0
   -1.2406   -0.8722    1.7874 H   0  0  0  0  0  0  0  0  0  0  0  0
   -0.6115    2.2380   -0.2648 H   0  0  0  0  0  0  0  0  0  0  0  0
   -2.0370    3.0475   -2.0931 H   0  0  0  0  0  0  0  0  0  0  0  0
   -4.0899    1.8175   -2.7150 H   0  0  0  0  0  0  0  0  0  0  0  0
   -4.7387   -0.2087   -1.4982 H   0  0  0  0  0  0  0  0  0  0  0  0
   -0.0552   -1.9542   -0.3681 H   0  0  0  0  0  0  0  0  0  0  0  0
    2.2099   -2.3462   -1.2430 H   0  0  0  0  0  0  0  0  0  0  0  0
  1  2  1  0
  2  3  1  0
  3  4  1  0
  4  5  2  0
  5  6  1  0
  6  7  1  0
  7  8  1  0
  8  9  2  0
  9 10  1  0
 10 11  2  0
 11 12  1  0
 12 13  2  0
 13 14  1  0
 14 15  1  0
 14 16  2  0
 14 17  2  0
  6 18  2  0
 18 19  1  0
 19  3  2  0
 13  8  1  0
  1 20  1  0
  1 21  1  0
  1 22  1  0
  4 23  1  0
  5 24  1  0
  7 25  1  0
  7 26  1  0
  9 27  1  0
 10 28  1  0
 11 29  1  0
 12 30  1  0
 18 31  1  0
 19 32  1  0
M  RAD  1  15   3
M  END
$$$$
