
     RDKit          3D

 32 33  0  0  0  0  0  0  0  0999 V2000
    5.1419   -1.4444   -0.2377 C   0  0  0  0  0  0  0  0  0  0  0  0
    4.2583   -0.4338   -0.7124 O   0  0  0  0  0  0  0  0  0  0  0  0
    3.0035   -0.1523   -0.1520 C   0  0  0  0  0  0  0  0  0  0  0  0
    2.2353    0.8696   -0.7207 C   0  0  0  0  0  0  0  0  0  0  0  0
    0.9771    1.1863   -0.2015 C   0  0  0  0  0  0  0  0  0  0  0  0
    0.4580    0.4700    0.8899 C   0  0  0  0  0  0  0  0  0  0  0  0
   -0.8868    0.8260    1.4735 C   0  0  0  0  0  0  0  0  0  0  0  0
   -1.9798    0.8550    0.4234 C   0  0  0  0  0  0  0  0  0  0  0  0
   -2.4476    2.1115   -0.0080 C   0  0  0  0  0  0  0  0  0  0  0  0
   -3.4375    2.2098   -0.9851 C   0  0  0  0  0  0  0  0  0  0  0  0
   -3.9735    1.0576   -1.5528 C   0  0  0  0  0  0  0  0  0  0  0  0
   -3.5224   -0.1979   -1.1456 C   0  0  0  0  0  0  0  0  0  0  0  0
   -2.5308   -0.3223   -0.1567 C   0  0  0  0  0  0  0  0  0  0  0  0
   -1.9936   -1.9548    0.2850 S   0  0  0  0  0  0  0  0  0  0  0  0
   -3.0795   -3.1370   -0.3566 N   0  0  0  0  0  1  0  0  0  0  0  0
   -1.9640   -2.1183    1.7779 O   0  0  0  0  0  0  0  0  0  0  0  0
   -0.6258   -2.2071   -0.2819 O   0  0  0  0  0  0  0  0  0  0  0  0
    1.2383   -0.5391    1.4773 C   0  0  0  0  0  0  0  0  0  0  0  0
    2.4966   -0.8554    0.9570 C   0  0  0  0  0  0  0  0  0  0  0  0
    6.0569   -1.4496   -0.8646 H   0  0  0  0  0  0  0  0  0  0  0  0
    5.4322   -1.2347    0.8135 H   0  0  0  0  0  0  0  0  0  0  0  0
    4.6561   -2.4405   -0.3089 H   0  0  0  0  0  0  0  0  0  0  0  0
    2.6177    1.4242   -1.5683 H   0  0  0  0  0  0  0  0  0  0  0  0
    0.4083    1.9895   -0.6524 H   0  0  0  0  0  0  0  0  0  0  0  0
   -1.1718    0.1340    2.2905 H   0  0  0  0  0  0  0  0  0  0  0  0
   -0.7899    1.8193    1.9633 H   0  0  0  0  0  0  0  0  0  0  0  0
   -2.0400    3.0239    0.4098 H   0  0  0  0  0  0  0  0  0  0  0  0
   -3.7861    3.1830   -1.3061 H   0  0  0  0  0  0  0  0  0  0  0  0
   -4.7381    1.1365   -2.3150 H   0  0  0  0  0  0  0  0  0  0  0  0
   -3.9495   -1.0739   -1.6143 H   0  0  0  0  0  0  0  0  0  0  0  0
    0.8695   -1.0895    2.3340 H   0  0  0  0  0  0  0  0  0  0  0  0
    3.0670   -1.6458    1.4253 H   0  0  0  0  0  0  0  0  0  0  0  0
  1  2  1  0
  2  3  1  0
  3  4  1  0
  4  5  2  0
  5  6  1  0
  6  7  1  0
  7  8  1  0
  8  9  2  0
  9 10  1  0
 10 11  2  0
 11 12  1  0
 12 13  2  0
 13 14  1  0
 14 15  1  0
 14 16  2  0
 14 17  2  0
  6 18  2  0
 18 19  1  0
 19  3  2  0
 13  8  1  0
  1 20  1  0
  1 21  1  0
  1 22  1  0
  4 23  1  0
  5 24  1  0
  7 25  1  0
  7 26  1  0
  9 27  1  0
 10 28  1  0
 11 29  1  0
 12 30  1  0
 18 31  1  0
 19 32  1  0
M  RAD  1  15   3
M  END
$$$$
