
     RDKit          3D

 32 33  0  0  0  0  0  0  0  0999 V2000
    5.1434   -0.5996    1.2420 C   0  0  0  0  0  0  0  0  0  0  0  0
    4.5543   -0.1424    0.0290 O   0  0  0  0  0  0  0  0  0  0  0  0
    3.2048    0.2141   -0.1106 C   0  0  0  0  0  0  0  0  0  0  0  0
    2.2920    0.1503    0.9594 C   0  0  0  0  0  0  0  0  0  0  0  0
    0.9565    0.5164    0.7691 C   0  0  0  0  0  0  0  0  0  0  0  0
    0.5112    0.9535   -0.4881 C   0  0  0  0  0  0  0  0  0  0  0  0
   -0.9346    1.3332   -0.6924 C   0  0  0  0  0  0  0  0  0  0  0  0
   -1.8363    0.1161   -0.6235 C   0  0  0  0  0  0  0  0  0  0  0  0
   -1.6064   -0.9257   -1.5435 C   0  0  0  0  0  0  0  0  0  0  0  0
   -2.3889   -2.0798   -1.5291 C   0  0  0  0  0  0  0  0  0  0  0  0
   -3.4217   -2.2102   -0.6048 C   0  0  0  0  0  0  0  0  0  0  0  0
   -3.6842   -1.1818    0.3004 C   0  0  0  0  0  0  0  0  0  0  0  0
   -2.9108   -0.0075    0.3012 C   0  0  0  0  0  0  0  0  0  0  0  0
   -3.3445    1.2803    1.4404 S   0  0  0  0  0  0  0  0  0  0  0  0
   -2.0490    1.5498    2.5505 N   0  0  0  0  0  1  0  0  0  0  0  0
   -3.6389    2.5453    0.6844 O   0  0  0  0  0  0  0  0  0  0  0  0
   -4.5696    0.8961    2.2221 O   0  0  0  0  0  0  0  0  0  0  0  0
    1.4221    1.0132   -1.5548 C   0  0  0  0  0  0  0  0  0  0  0  0
    2.7574    0.6471   -1.3640 C   0  0  0  0  0  0  0  0  0  0  0  0
    4.6493   -1.5360    1.5771 H   0  0  0  0  0  0  0  0  0  0  0  0
    5.0559    0.1811    2.0269 H   0  0  0  0  0  0  0  0  0  0  0  0
    6.2186   -0.8083    1.0668 H   0  0  0  0  0  0  0  0  0  0  0  0
    2.6034   -0.1827    1.9400 H   0  0  0  0  0  0  0  0  0  0  0  0
    0.2676    0.4527    1.6009 H   0  0  0  0  0  0  0  0  0  0  0  0
   -1.0757    1.8170   -1.6834 H   0  0  0  0  0  0  0  0  0  0  0  0
   -1.1901    2.1032    0.0582 H   0  0  0  0  0  0  0  0  0  0  0  0
   -0.8108   -0.8458   -2.2741 H   0  0  0  0  0  0  0  0  0  0  0  0
   -2.1935   -2.8749   -2.2371 H   0  0  0  0  0  0  0  0  0  0  0  0
   -4.0275   -3.1071   -0.5949 H   0  0  0  0  0  0  0  0  0  0  0  0
   -4.5023   -1.3056    0.9974 H   0  0  0  0  0  0  0  0  0  0  0  0
    1.0994    1.3396   -2.5357 H   0  0  0  0  0  0  0  0  0  0  0  0
    3.4488    0.6983   -2.1955 H   0  0  0  0  0  0  0  0  0  0  0  0
  1  2  1  0
  2  3  1  0
  3  4  1  0
  4  5  2  0
  5  6  1  0
  6  7  1  0
  7  8  1  0
  8  9  2  0
  9 10  1  0
 10 11  2  0
 11 12  1  0
 12 13  2  0
 13 14  1  0
 14 15  1  0
 14 16  2  0
 14 17  2  0
  6 18  2  0
 18 19  1  0
 19  3  2  0
 13  8  1  0
  1 20  1  0
  1 21  1  0
  1 22  1  0
  4 23  1  0
  5 24  1  0
  7 25  1  0
  7 26  1  0
  9 27  1  0
 10 28  1  0
 11 29  1  0
 12 30  1  0
 18 31  1  0
 19 32  1  0
M  RAD  1  15   3
M  END
$$$$
