
     RDKit          3D

 32 33  0  0  0  0  0  0  0  0999 V2000
    5.1133   -1.0691   -1.2082 C   0  0  0  0  0  0  0  0  0  0  0  0
    4.0772   -0.1579   -1.5594 O   0  0  0  0  0  0  0  0  0  0  0  0
    2.9228    0.0618   -0.7933 C   0  0  0  0  0  0  0  0  0  0  0  0
    1.9821    0.9874   -1.2584 C   0  0  0  0  0  0  0  0  0  0  0  0
    0.8142    1.2394   -0.5336 C   0  0  0  0  0  0  0  0  0  0  0  0
    0.5599    0.5528    0.6655 C   0  0  0  0  0  0  0  0  0  0  0  0
   -0.6849    0.8412    1.4674 C   0  0  0  0  0  0  0  0  0  0  0  0
   -1.9457    0.7254    0.6337 C   0  0  0  0  0  0  0  0  0  0  0  0
   -2.5873    1.9153    0.2383 C   0  0  0  0  0  0  0  0  0  0  0  0
   -3.7399    1.8806   -0.5456 C   0  0  0  0  0  0  0  0  0  0  0  0
   -4.2690    0.6595   -0.9535 C   0  0  0  0  0  0  0  0  0  0  0  0
   -3.6481   -0.5320   -0.5789 C   0  0  0  0  0  0  0  0  0  0  0  0
   -2.4895   -0.5224    0.2175 C   0  0  0  0  0  0  0  0  0  0  0  0
   -1.7463   -2.0808    0.6274 S   0  0  0  0  0  0  0  0  0  0  0  0
   -2.8251   -3.3772    0.2485 N   0  0  0  0  0  1  0  0  0  0  0  0
   -0.4848   -2.2632   -0.1671 O   0  0  0  0  0  0  0  0  0  0  0  0
   -1.4379   -2.1521    2.0957 O   0  0  0  0  0  0  0  0  0  0  0  0
    1.5147   -0.3580    1.1461 C   0  0  0  0  0  0  0  0  0  0  0  0
    2.6825   -0.6097    0.4202 C   0  0  0  0  0  0  0  0  0  0  0  0
    5.8994   -1.0433   -1.9904 H   0  0  0  0  0  0  0  0  0  0  0  0
    4.7086   -2.1013   -1.1446 H   0  0  0  0  0  0  0  0  0  0  0  0
    5.5672   -0.7757   -0.2381 H   0  0  0  0  0  0  0  0  0  0  0  0
    2.1594    1.5173   -2.1857 H   0  0  0  0  0  0  0  0  0  0  0  0
    0.1084    1.9692   -0.9093 H   0  0  0  0  0  0  0  0  0  0  0  0
   -0.5867    1.8665    1.8859 H   0  0  0  0  0  0  0  0  0  0  0  0
   -0.7604    0.1800    2.3531 H   0  0  0  0  0  0  0  0  0  0  0  0
   -2.1905    2.8791    0.5332 H   0  0  0  0  0  0  0  0  0  0  0  0
   -4.2211    2.8039   -0.8415 H   0  0  0  0  0  0  0  0  0  0  0  0
   -5.1607    0.6352   -1.5666 H   0  0  0  0  0  0  0  0  0  0  0  0
   -4.0761   -1.4641   -0.9220 H   0  0  0  0  0  0  0  0  0  0  0  0
    1.3521   -0.8822    2.0797 H   0  0  0  0  0  0  0  0  0  0  0  0
    3.3919   -1.3256    0.8121 H   0  0  0  0  0  0  0  0  0  0  0  0
  1  2  1  0
  2  3  1  0
  3  4  1  0
  4  5  2  0
  5  6  1  0
  6  7  1  0
  7  8  1  0
  8  9  2  0
  9 10  1  0
 10 11  2  0
 11 12  1  0
 12 13  2  0
 13 14  1  0
 14 15  1  0
 14 16  2  0
 14 17  2  0
  6 18  2  0
 18 19  1  0
 19  3  2  0
 13  8  1  0
  1 20  1  0
  1 21  1  0
  1 22  1  0
  4 23  1  0
  5 24  1  0
  7 25  1  0
  7 26  1  0
  9 27  1  0
 10 28  1  0
 11 29  1  0
 12 30  1  0
 18 31  1  0
 19 32  1  0
M  RAD  1  15   3
M  END
$$$$
