
     RDKit          3D

 32 33  0  0  0  0  0  0  0  0999 V2000
   -5.0230   -0.5171   -1.6762 C   0  0  0  0  0  0  0  0  0  0  0  0
   -4.5355   -0.1708   -0.3840 O   0  0  0  0  0  0  0  0  0  0  0  0
   -3.1990   -0.3056    0.0202 C   0  0  0  0  0  0  0  0  0  0  0  0
   -2.1982   -0.8062   -0.8341 C   0  0  0  0  0  0  0  0  0  0  0  0
   -0.8799   -0.9210   -0.3837 C   0  0  0  0  0  0  0  0  0  0  0  0
   -0.5397   -0.5416    0.9240 C   0  0  0  0  0  0  0  0  0  0  0  0
    0.8874   -0.6531    1.4007 C   0  0  0  0  0  0  0  0  0  0  0  0
    1.7776    0.3608    0.7088 C   0  0  0  0  0  0  0  0  0  0  0  0
    1.4573    1.7249    0.8543 C   0  0  0  0  0  0  0  0  0  0  0  0
    2.2248    2.7110    0.2354 C   0  0  0  0  0  0  0  0  0  0  0  0
    3.3318    2.3547   -0.5298 C   0  0  0  0  0  0  0  0  0  0  0  0
    3.6832    1.0120   -0.6687 C   0  0  0  0  0  0  0  0  0  0  0  0
    2.9263    0.0012   -0.0502 C   0  0  0  0  0  0  0  0  0  0  0  0
    3.4715   -1.6774   -0.2220 S   0  0  0  0  0  0  0  0  0  0  0  0
    2.2796   -2.6040   -1.0613 N   0  0  0  0  0  1  0  0  0  0  0  0
    3.7141   -2.2713    1.1370 O   0  0  0  0  0  0  0  0  0  0  0  0
    4.7549   -1.7330   -1.0025 O   0  0  0  0  0  0  0  0  0  0  0  0
   -1.5383   -0.0394    1.7734 C   0  0  0  0  0  0  0  0  0  0  0  0
   -2.8563    0.0752    1.3226 C   0  0  0  0  0  0  0  0  0  0  0  0
   -6.1116   -0.3092   -1.7207 H   0  0  0  0  0  0  0  0  0  0  0  0
   -4.5127    0.0915   -2.4525 H   0  0  0  0  0  0  0  0  0  0  0  0
   -4.8592   -1.5984   -1.8690 H   0  0  0  0  0  0  0  0  0  0  0  0
   -2.4276   -1.1066   -1.8473 H   0  0  0  0  0  0  0  0  0  0  0  0
   -0.1227   -1.2998   -1.0572 H   0  0  0  0  0  0  0  0  0  0  0  0
    0.9482   -0.4808    2.4973 H   0  0  0  0  0  0  0  0  0  0  0  0
    1.2156   -1.6964    1.2407 H   0  0  0  0  0  0  0  0  0  0  0  0
    0.6027    2.0267    1.4474 H   0  0  0  0  0  0  0  0  0  0  0  0
    1.9599    3.7542    0.3500 H   0  0  0  0  0  0  0  0  0  0  0  0
    3.9258    3.1217   -1.0099 H   0  0  0  0  0  0  0  0  0  0  0  0
    4.5569    0.7665   -1.2577 H   0  0  0  0  0  0  0  0  0  0  0  0
   -1.2977    0.2673    2.7838 H   0  0  0  0  0  0  0  0  0  0  0  0
   -3.6163    0.4639    1.9886 H   0  0  0  0  0  0  0  0  0  0  0  0
  1  2  1  0
  2  3  1  0
  3  4  1  0
  4  5  2  0
  5  6  1  0
  6  7  1  0
  7  8  1  0
  8  9  2  0
  9 10  1  0
 10 11  2  0
 11 12  1  0
 12 13  2  0
 13 14  1  0
 14 15  1  0
 14 16  2  0
 14 17  2  0
  6 18  2  0
 18 19  1  0
 19  3  2  0
 13  8  1  0
  1 20  1  0
  1 21  1  0
  1 22  1  0
  4 23  1  0
  5 24  1  0
  7 25  1  0
  7 26  1  0
  9 27  1  0
 10 28  1  0
 11 29  1  0
 12 30  1  0
 18 31  1  0
 19 32  1  0
M  RAD  1  15   3
M  END
$$$$
