
     RDKit          3D

 32 33  0  0  0  0  0  0  0  0999 V2000
    5.2101   -1.2053   -0.0297 C   0  0  0  0  0  0  0  0  0  0  0  0
    4.1649   -0.9140    0.8923 O   0  0  0  0  0  0  0  0  0  0  0  0
    2.9582   -0.2867    0.5488 C   0  0  0  0  0  0  0  0  0  0  0  0
    2.6682    0.1246   -0.7658 C   0  0  0  0  0  0  0  0  0  0  0  0
    1.4494    0.7435   -1.0583 C   0  0  0  0  0  0  0  0  0  0  0  0
    0.4934    0.9458   -0.0497 C   0  0  0  0  0  0  0  0  0  0  0  0
   -0.8083    1.6397   -0.3660 C   0  0  0  0  0  0  0  0  0  0  0  0
   -2.0101    0.8644    0.1365 C   0  0  0  0  0  0  0  0  0  0  0  0
   -2.6692    1.3406    1.2865 C   0  0  0  0  0  0  0  0  0  0  0  0
   -3.7693    0.6643    1.8127 C   0  0  0  0  0  0  0  0  0  0  0  0
   -4.2271   -0.5012    1.2050 C   0  0  0  0  0  0  0  0  0  0  0  0
   -3.5873   -0.9951    0.0683 C   0  0  0  0  0  0  0  0  0  0  0  0
   -2.4812   -0.3264   -0.4849 C   0  0  0  0  0  0  0  0  0  0  0  0
   -1.7081   -1.0357   -1.9161 S   0  0  0  0  0  0  0  0  0  0  0  0
   -2.7132   -2.2700   -2.5903 N   0  0  0  0  0  1  0  0  0  0  0  0
   -1.4885    0.0085   -2.9733 O   0  0  0  0  0  0  0  0  0  0  0  0
   -0.3942   -1.6509   -1.5275 O   0  0  0  0  0  0  0  0  0  0  0  0
    0.7958    0.5562    1.2657 C   0  0  0  0  0  0  0  0  0  0  0  0
    2.0147   -0.0620    1.5573 C   0  0  0  0  0  0  0  0  0  0  0  0
    6.0414   -1.7032    0.5101 H   0  0  0  0  0  0  0  0  0  0  0  0
    5.5922   -0.2662   -0.4829 H   0  0  0  0  0  0  0  0  0  0  0  0
    4.8403   -1.8897   -0.8223 H   0  0  0  0  0  0  0  0  0  0  0  0
    3.3778   -0.0269   -1.5676 H   0  0  0  0  0  0  0  0  0  0  0  0
    1.2488    1.0563   -2.0755 H   0  0  0  0  0  0  0  0  0  0  0  0
   -0.7737    2.6495    0.0978 H   0  0  0  0  0  0  0  0  0  0  0  0
   -0.9141    1.8305   -1.4522 H   0  0  0  0  0  0  0  0  0  0  0  0
   -2.3269    2.2393    1.7849 H   0  0  0  0  0  0  0  0  0  0  0  0
   -4.2647    1.0431    2.6974 H   0  0  0  0  0  0  0  0  0  0  0  0
   -5.0779   -1.0274    1.6185 H   0  0  0  0  0  0  0  0  0  0  0  0
   -3.9590   -1.9096   -0.3736 H   0  0  0  0  0  0  0  0  0  0  0  0
    0.0884    0.7293    2.0667 H   0  0  0  0  0  0  0  0  0  0  0  0
    2.2294   -0.3654    2.5742 H   0  0  0  0  0  0  0  0  0  0  0  0
  1  2  1  0
  2  3  1  0
  3  4  1  0
  4  5  2  0
  5  6  1  0
  6  7  1  0
  7  8  1  0
  8  9  2  0
  9 10  1  0
 10 11  2  0
 11 12  1  0
 12 13  2  0
 13 14  1  0
 14 15  1  0
 14 16  2  0
 14 17  2  0
  6 18  2  0
 18 19  1  0
 19  3  2  0
 13  8  1  0
  1 20  1  0
  1 21  1  0
  1 22  1  0
  4 23  1  0
  5 24  1  0
  7 25  1  0
  7 26  1  0
  9 27  1  0
 10 28  1  0
 11 29  1  0
 12 30  1  0
 18 31  1  0
 19 32  1  0
M  RAD  1  15   3
M  END
$$$$
