
     RDKit          3D

 31 33  0  0  0  0  0  0  0  0999 V2000
   -2.9979   -2.1608   -1.3770 N   0  0  0  0  0  1  0  0  0  0  0  0
   -2.7613   -1.0940   -0.4609 C   0  0  0  0  0  0  0  0  0  0  0  0
   -3.3437   -1.1448    0.8113 C   0  0  0  0  0  0  0  0  0  0  0  0
   -3.1169   -0.1183    1.7312 C   0  0  0  0  0  0  0  0  0  0  0  0
   -2.3065    0.9644    1.3848 C   0  0  0  0  0  0  0  0  0  0  0  0
   -1.7231    1.0252    0.1168 C   0  0  0  0  0  0  0  0  0  0  0  0
   -1.9478    0.0014   -0.8210 C   0  0  0  0  0  0  0  0  0  0  0  0
   -1.2625    0.0609   -2.1672 C   0  0  0  0  0  0  0  0  0  0  0  0
    0.0229   -0.7787   -2.1924 C   0  0  0  0  0  0  0  0  0  0  0  0
    1.0524   -0.2513   -1.2268 C   0  0  0  0  0  0  0  0  0  0  0  0
    1.8617    0.8578   -1.5856 C   0  0  0  0  0  0  0  0  0  0  0  0
    2.7878    1.3950   -0.6730 C   0  0  0  0  0  0  0  0  0  0  0  0
    2.8737    0.8098    0.5869 C   0  0  0  0  0  0  0  0  0  0  0  0
    3.6542    1.1550    1.5810 O   0  0  0  0  0  0  0  0  0  0  0  0
    3.4028    0.3376    2.5883 C   0  0  0  0  0  0  0  0  0  0  0  0
    2.4171   -0.5787    2.2364 C   0  0  0  0  0  0  0  0  0  0  0  0
    2.0927   -0.2553    0.9401 C   0  0  0  0  0  0  0  0  0  0  0  0
    1.1681   -0.8161    0.0638 C   0  0  0  0  0  0  0  0  0  0  0  0
   -3.9697   -1.9834    1.0897 H   0  0  0  0  0  0  0  0  0  0  0  0
   -3.5669   -0.1641    2.7145 H   0  0  0  0  0  0  0  0  0  0  0  0
   -2.1262    1.7555    2.1011 H   0  0  0  0  0  0  0  0  0  0  0  0
   -1.0856    1.8653   -0.1303 H   0  0  0  0  0  0  0  0  0  0  0  0
   -1.0239    1.1139   -2.4350 H   0  0  0  0  0  0  0  0  0  0  0  0
   -1.9532   -0.3114   -2.9541 H   0  0  0  0  0  0  0  0  0  0  0  0
    0.4429   -0.7605   -3.2215 H   0  0  0  0  0  0  0  0  0  0  0  0
   -0.2149   -1.8406   -1.9634 H   0  0  0  0  0  0  0  0  0  0  0  0
    1.7663    1.3061   -2.5667 H   0  0  0  0  0  0  0  0  0  0  0  0
    3.4077    2.2411   -0.9391 H   0  0  0  0  0  0  0  0  0  0  0  0
    3.9010    0.3862    3.5472 H   0  0  0  0  0  0  0  0  0  0  0  0
    1.9996   -1.3678    2.8476 H   0  0  0  0  0  0  0  0  0  0  0  0
    0.5493   -1.6494    0.3735 H   0  0  0  0  0  0  0  0  0  0  0  0
  1  2  1  0
  2  3  2  0
  3  4  1  0
  4  5  2  0
  5  6  1  0
  6  7  2  0
  7  8  1  0
  8  9  1  0
  9 10  1  0
 10 11  2  0
 11 12  1  0
 12 13  2  0
 13 14  1  0
 14 15  1  0
 15 16  2  0
 16 17  1  0
 17 18  2  0
  7  2  1  0
 17 13  1  0
 18 10  1  0
  3 19  1  0
  4 20  1  0
  5 21  1  0
  6 22  1  0
  8 23  1  0
  8 24  1  0
  9 25  1  0
  9 26  1  0
 11 27  1  0
 12 28  1  0
 15 29  1  0
 16 30  1  0
 18 31  1  0
M  RAD  1   1   3
M  END
$$$$
