
     RDKit          3D

 31 33  0  0  0  0  0  0  0  0999 V2000
   -2.5798   -0.5648   -2.5590 N   0  0  0  0  0  1  0  0  0  0  0  0
   -3.2122   -0.3453   -1.2998 C   0  0  0  0  0  0  0  0  0  0  0  0
   -4.5863   -0.0792   -1.2633 C   0  0  0  0  0  0  0  0  0  0  0  0
   -5.2262    0.1545   -0.0437 C   0  0  0  0  0  0  0  0  0  0  0  0
   -4.4953    0.1282    1.1456 C   0  0  0  0  0  0  0  0  0  0  0  0
   -3.1234   -0.1368    1.1193 C   0  0  0  0  0  0  0  0  0  0  0  0
   -2.4700   -0.3887   -0.0998 C   0  0  0  0  0  0  0  0  0  0  0  0
   -0.9821   -0.6400   -0.1070 C   0  0  0  0  0  0  0  0  0  0  0  0
   -0.2148    0.6704   -0.3059 C   0  0  0  0  0  0  0  0  0  0  0  0
    1.2681    0.4179   -0.3156 C   0  0  0  0  0  0  0  0  0  0  0  0
    1.9286    0.1020   -1.5316 C   0  0  0  0  0  0  0  0  0  0  0  0
    3.3090   -0.1697   -1.5483 C   0  0  0  0  0  0  0  0  0  0  0  0
    3.9948   -0.1281   -0.3380 C   0  0  0  0  0  0  0  0  0  0  0  0
    5.2691   -0.3498   -0.1292 O   0  0  0  0  0  0  0  0  0  0  0  0
    5.4919   -0.2095    1.1656 C   0  0  0  0  0  0  0  0  0  0  0  0
    4.3136    0.1170    1.8289 C   0  0  0  0  0  0  0  0  0  0  0  0
    3.3616    0.1649    0.8379 C   0  0  0  0  0  0  0  0  0  0  0  0
    1.9976    0.4392    0.8944 C   0  0  0  0  0  0  0  0  0  0  0  0
   -5.1591   -0.0493   -2.1818 H   0  0  0  0  0  0  0  0  0  0  0  0
   -6.2884    0.3613   -0.0211 H   0  0  0  0  0  0  0  0  0  0  0  0
   -4.9914    0.3167    2.0889 H   0  0  0  0  0  0  0  0  0  0  0  0
   -2.5694   -0.1442    2.0500 H   0  0  0  0  0  0  0  0  0  0  0  0
   -0.7200   -1.3589   -0.9136 H   0  0  0  0  0  0  0  0  0  0  0  0
   -0.6739   -1.1085    0.8541 H   0  0  0  0  0  0  0  0  0  0  0  0
   -0.5204    1.1446   -1.2646 H   0  0  0  0  0  0  0  0  0  0  0  0
   -0.4700    1.3815    0.5108 H   0  0  0  0  0  0  0  0  0  0  0  0
    1.3724    0.0650   -2.4599 H   0  0  0  0  0  0  0  0  0  0  0  0
    3.8202   -0.4083   -2.4718 H   0  0  0  0  0  0  0  0  0  0  0  0
    6.4604   -0.3344    1.6311 H   0  0  0  0  0  0  0  0  0  0  0  0
    4.1784    0.2934    2.8879 H   0  0  0  0  0  0  0  0  0  0  0  0
    1.5168    0.6587    1.8398 H   0  0  0  0  0  0  0  0  0  0  0  0
  1  2  1  0
  2  3  2  0
  3  4  1  0
  4  5  2  0
  5  6  1  0
  6  7  2  0
  7  8  1  0
  8  9  1  0
  9 10  1  0
 10 11  2  0
 11 12  1  0
 12 13  2  0
 13 14  1  0
 14 15  1  0
 15 16  2  0
 16 17  1  0
 17 18  2  0
  7  2  1  0
 17 13  1  0
 18 10  1  0
  3 19  1  0
  4 20  1  0
  5 21  1  0
  6 22  1  0
  8 23  1  0
  8 24  1  0
  9 25  1  0
  9 26  1  0
 11 27  1  0
 12 28  1  0
 15 29  1  0
 16 30  1  0
 18 31  1  0
M  RAD  1   1   3
M  END
$$$$
