
     RDKit          3D

 31 33  0  0  0  0  0  0  0  0999 V2000
   -2.7912   -2.3678    0.3701 N   0  0  0  0  0  1  0  0  0  0  0  0
   -3.3022   -1.0368    0.4020 C   0  0  0  0  0  0  0  0  0  0  0  0
   -4.6789   -0.8304    0.2519 C   0  0  0  0  0  0  0  0  0  0  0  0
   -5.2023    0.4647    0.2642 C   0  0  0  0  0  0  0  0  0  0  0  0
   -4.3520    1.5608    0.4218 C   0  0  0  0  0  0  0  0  0  0  0  0
   -2.9766    1.3649    0.5725 C   0  0  0  0  0  0  0  0  0  0  0  0
   -2.4386    0.0660    0.5771 C   0  0  0  0  0  0  0  0  0  0  0  0
   -0.9469   -0.1196    0.7085 C   0  0  0  0  0  0  0  0  0  0  0  0
   -0.2859   -0.1695   -0.6722 C   0  0  0  0  0  0  0  0  0  0  0  0
    1.2006   -0.3578   -0.5397 C   0  0  0  0  0  0  0  0  0  0  0  0
    1.7495   -1.6650   -0.4719 C   0  0  0  0  0  0  0  0  0  0  0  0
    3.1347   -1.8539   -0.3138 C   0  0  0  0  0  0  0  0  0  0  0  0
    3.9385   -0.7220   -0.2164 C   0  0  0  0  0  0  0  0  0  0  0  0
    5.2388   -0.6714   -0.0636 O   0  0  0  0  0  0  0  0  0  0  0  0
    5.5858    0.6026   -0.0143 C   0  0  0  0  0  0  0  0  0  0  0  0
    4.4648    1.4168   -0.1398 C   0  0  0  0  0  0  0  0  0  0  0  0
    3.4140    0.5396   -0.2700 C   0  0  0  0  0  0  0  0  0  0  0  0
    2.0491    0.7664   -0.4258 C   0  0  0  0  0  0  0  0  0  0  0  0
   -5.3443   -1.6747    0.1215 H   0  0  0  0  0  0  0  0  0  0  0  0
   -6.2671    0.6188    0.1464 H   0  0  0  0  0  0  0  0  0  0  0  0
   -4.7585    2.5640    0.4238 H   0  0  0  0  0  0  0  0  0  0  0  0
   -2.3299    2.2266    0.6841 H   0  0  0  0  0  0  0  0  0  0  0  0
   -0.5127    0.7185    1.2978 H   0  0  0  0  0  0  0  0  0  0  0  0
   -0.7260   -1.0545    1.2684 H   0  0  0  0  0  0  0  0  0  0  0  0
   -0.4981    0.7734   -1.2232 H   0  0  0  0  0  0  0  0  0  0  0  0
   -0.7179   -1.0043   -1.2670 H   0  0  0  0  0  0  0  0  0  0  0  0
    1.1032   -2.5313   -0.5392 H   0  0  0  0  0  0  0  0  0  0  0  0
    3.5609   -2.8474   -0.2643 H   0  0  0  0  0  0  0  0  0  0  0  0
    6.6031    0.9495    0.1074 H   0  0  0  0  0  0  0  0  0  0  0  0
    4.4298    2.4982   -0.1356 H   0  0  0  0  0  0  0  0  0  0  0  0
    1.6564    1.7754   -0.4553 H   0  0  0  0  0  0  0  0  0  0  0  0
  1  2  1  0
  2  3  2  0
  3  4  1  0
  4  5  2  0
  5  6  1  0
  6  7  2  0
  7  8  1  0
  8  9  1  0
  9 10  1  0
 10 11  2  0
 11 12  1  0
 12 13  2  0
 13 14  1  0
 14 15  1  0
 15 16  2  0
 16 17  1  0
 17 18  2  0
  7  2  1  0
 17 13  1  0
 18 10  1  0
  3 19  1  0
  4 20  1  0
  5 21  1  0
  6 22  1  0
  8 23  1  0
  8 24  1  0
  9 25  1  0
  9 26  1  0
 11 27  1  0
 12 28  1  0
 15 29  1  0
 16 30  1  0
 18 31  1  0
M  RAD  1   1   3
M  END
$$$$
