
     RDKit          3D

 31 33  0  0  0  0  0  0  0  0999 V2000
   -2.8985    0.1410    2.6704 N   0  0  0  0  0  1  0  0  0  0  0  0
   -2.6619    0.4883    1.3078 C   0  0  0  0  0  0  0  0  0  0  0  0
   -3.0635    1.7469    0.8443 C   0  0  0  0  0  0  0  0  0  0  0  0
   -2.8315    2.1156   -0.4829 C   0  0  0  0  0  0  0  0  0  0  0  0
   -2.1965    1.2286   -1.3541 C   0  0  0  0  0  0  0  0  0  0  0  0
   -1.7945   -0.0305   -0.9015 C   0  0  0  0  0  0  0  0  0  0  0  0
   -2.0270   -0.4168    0.4307 C   0  0  0  0  0  0  0  0  0  0  0  0
   -1.5346   -1.7623    0.9130 C   0  0  0  0  0  0  0  0  0  0  0  0
   -0.1798   -1.6533    1.6272 C   0  0  0  0  0  0  0  0  0  0  0  0
    0.9037   -1.1717    0.6973 C   0  0  0  0  0  0  0  0  0  0  0  0
    1.5330   -2.0806   -0.1924 C   0  0  0  0  0  0  0  0  0  0  0  0
    2.5066   -1.6336   -1.1044 C   0  0  0  0  0  0  0  0  0  0  0  0
    2.8201   -0.2776   -1.1083 C   0  0  0  0  0  0  0  0  0  0  0  0
    3.6818    0.3451   -1.8741 O   0  0  0  0  0  0  0  0  0  0  0  0
    3.6553    1.6249   -1.5464 C   0  0  0  0  0  0  0  0  0  0  0  0
    2.7379    1.8459   -0.5243 C   0  0  0  0  0  0  0  0  0  0  0  0
    2.2131    0.6036   -0.2573 C   0  0  0  0  0  0  0  0  0  0  0  0
    1.2484    0.1986    0.6606 C   0  0  0  0  0  0  0  0  0  0  0  0
   -3.5523    2.4427    1.5147 H   0  0  0  0  0  0  0  0  0  0  0  0
   -3.1411    3.0910   -0.8353 H   0  0  0  0  0  0  0  0  0  0  0  0
   -2.0114    1.5184   -2.3803 H   0  0  0  0  0  0  0  0  0  0  0  0
   -1.2904   -0.7008   -1.5870 H   0  0  0  0  0  0  0  0  0  0  0  0
   -1.4495   -2.4725    0.0610 H   0  0  0  0  0  0  0  0  0  0  0  0
   -2.2777   -2.2027    1.6121 H   0  0  0  0  0  0  0  0  0  0  0  0
   -0.2681   -0.9744    2.5035 H   0  0  0  0  0  0  0  0  0  0  0  0
    0.0972   -2.6536    2.0252 H   0  0  0  0  0  0  0  0  0  0  0  0
    1.2616   -3.1288   -0.1815 H   0  0  0  0  0  0  0  0  0  0  0  0
    2.9903   -2.3205   -1.7864 H   0  0  0  0  0  0  0  0  0  0  0  0
    4.2666    2.3837   -2.0162 H   0  0  0  0  0  0  0  0  0  0  0  0
    2.4927    2.7860   -0.0481 H   0  0  0  0  0  0  0  0  0  0  0  0
    0.7702    0.9192    1.3127 H   0  0  0  0  0  0  0  0  0  0  0  0
  1  2  1  0
  2  3  2  0
  3  4  1  0
  4  5  2  0
  5  6  1  0
  6  7  2  0
  7  8  1  0
  8  9  1  0
  9 10  1  0
 10 11  2  0
 11 12  1  0
 12 13  2  0
 13 14  1  0
 14 15  1  0
 15 16  2  0
 16 17  1  0
 17 18  2  0
  7  2  1  0
 17 13  1  0
 18 10  1  0
  3 19  1  0
  4 20  1  0
  5 21  1  0
  6 22  1  0
  8 23  1  0
  8 24  1  0
  9 25  1  0
  9 26  1  0
 11 27  1  0
 12 28  1  0
 15 29  1  0
 16 30  1  0
 18 31  1  0
M  RAD  1   1   3
M  END
$$$$
