
     RDKit          3D

 31 33  0  0  0  0  0  0  0  0999 V2000
   -2.3230   -0.1565   -3.1830 N   0  0  0  0  0  1  0  0  0  0  0  0
   -2.3588    0.3118   -1.8367 C   0  0  0  0  0  0  0  0  0  0  0  0
   -2.8508    1.5959   -1.5733 C   0  0  0  0  0  0  0  0  0  0  0  0
   -2.8844    2.0824   -0.2644 C   0  0  0  0  0  0  0  0  0  0  0  0
   -2.4260    1.2886    0.7885 C   0  0  0  0  0  0  0  0  0  0  0  0
   -1.9355    0.0050    0.5360 C   0  0  0  0  0  0  0  0  0  0  0  0
   -1.9014   -0.4995   -0.7764 C   0  0  0  0  0  0  0  0  0  0  0  0
   -1.3161   -1.8696   -1.0328 C   0  0  0  0  0  0  0  0  0  0  0  0
    0.1513   -1.7906   -1.4779 C   0  0  0  0  0  0  0  0  0  0  0  0
    1.0296   -1.2058   -0.4023 C   0  0  0  0  0  0  0  0  0  0  0  0
    1.4790   -2.0200    0.6696 C   0  0  0  0  0  0  0  0  0  0  0  0
    2.2532   -1.4736    1.7095 C   0  0  0  0  0  0  0  0  0  0  0  0
    2.5515   -0.1154    1.6537 C   0  0  0  0  0  0  0  0  0  0  0  0
    3.2434    0.5907    2.5135 O   0  0  0  0  0  0  0  0  0  0  0  0
    3.2734    1.8367    2.0746 C   0  0  0  0  0  0  0  0  0  0  0  0
    2.5716    1.9476    0.8787 C   0  0  0  0  0  0  0  0  0  0  0  0
    2.1166    0.6750    0.6265 C   0  0  0  0  0  0  0  0  0  0  0  0
    1.3520    0.1703   -0.4213 C   0  0  0  0  0  0  0  0  0  0  0  0
   -3.2039    2.2200   -2.3848 H   0  0  0  0  0  0  0  0  0  0  0  0
   -3.2628    3.0770   -0.0666 H   0  0  0  0  0  0  0  0  0  0  0  0
   -2.4463    1.6697    1.8013 H   0  0  0  0  0  0  0  0  0  0  0  0
   -1.5707   -0.5919    1.3628 H   0  0  0  0  0  0  0  0  0  0  0  0
   -1.9059   -2.3856   -1.8207 H   0  0  0  0  0  0  0  0  0  0  0  0
   -1.3944   -2.5018   -0.1209 H   0  0  0  0  0  0  0  0  0  0  0  0
    0.5068   -2.8147   -1.7243 H   0  0  0  0  0  0  0  0  0  0  0  0
    0.2312   -1.1917   -2.4115 H   0  0  0  0  0  0  0  0  0  0  0  0
    1.2214   -3.0713    0.6994 H   0  0  0  0  0  0  0  0  0  0  0  0
    2.5988   -2.0880    2.5306 H   0  0  0  0  0  0  0  0  0  0  0  0
    3.7766    2.6471    2.5847 H   0  0  0  0  0  0  0  0  0  0  0  0
    2.4181    2.8374    0.2825 H   0  0  0  0  0  0  0  0  0  0  0  0
    1.0057    0.8208   -1.2150 H   0  0  0  0  0  0  0  0  0  0  0  0
  1  2  1  0
  2  3  2  0
  3  4  1  0
  4  5  2  0
  5  6  1  0
  6  7  2  0
  7  8  1  0
  8  9  1  0
  9 10  1  0
 10 11  2  0
 11 12  1  0
 12 13  2  0
 13 14  1  0
 14 15  1  0
 15 16  2  0
 16 17  1  0
 17 18  2  0
  7  2  1  0
 17 13  1  0
 18 10  1  0
  3 19  1  0
  4 20  1  0
  5 21  1  0
  6 22  1  0
  8 23  1  0
  8 24  1  0
  9 25  1  0
  9 26  1  0
 11 27  1  0
 12 28  1  0
 15 29  1  0
 16 30  1  0
 18 31  1  0
M  RAD  1   1   3
M  END
$$$$
