
     RDKit          3D

 31 33  0  0  0  0  0  0  0  0999 V2000
   -3.2049   -1.5150   -1.7182 N   0  0  0  0  0  1  0  0  0  0  0  0
   -2.8633   -0.5829   -0.6945 C   0  0  0  0  0  0  0  0  0  0  0  0
   -3.5004    0.6635   -0.6658 C   0  0  0  0  0  0  0  0  0  0  0  0
   -3.1741    1.5986    0.3193 C   0  0  0  0  0  0  0  0  0  0  0  0
   -2.2089    1.2934    1.2807 C   0  0  0  0  0  0  0  0  0  0  0  0
   -1.5696    0.0513    1.2617 C   0  0  0  0  0  0  0  0  0  0  0  0
   -1.8927   -0.9016    0.2791 C   0  0  0  0  0  0  0  0  0  0  0  0
   -1.1495   -2.2176    0.2447 C   0  0  0  0  0  0  0  0  0  0  0  0
    0.0085   -2.1945   -0.7633 C   0  0  0  0  0  0  0  0  0  0  0  0
    1.0589   -1.1833   -0.3829 C   0  0  0  0  0  0  0  0  0  0  0  0
    2.0271   -1.5010    0.6048 C   0  0  0  0  0  0  0  0  0  0  0  0
    2.9787   -0.5470    1.0092 C   0  0  0  0  0  0  0  0  0  0  0  0
    2.9302    0.7116    0.4171 C   0  0  0  0  0  0  0  0  0  0  0  0
    3.7079    1.7396    0.6512 O   0  0  0  0  0  0  0  0  0  0  0  0
    3.3045    2.7303   -0.1245 C   0  0  0  0  0  0  0  0  0  0  0  0
    2.2182    2.3316   -0.8966 C   0  0  0  0  0  0  0  0  0  0  0  0
    1.9963    1.0250   -0.5309 C   0  0  0  0  0  0  0  0  0  0  0  0
    1.0414    0.1073   -0.9589 C   0  0  0  0  0  0  0  0  0  0  0  0
   -4.2466    0.9101   -1.4106 H   0  0  0  0  0  0  0  0  0  0  0  0
   -3.6673    2.5620    0.3351 H   0  0  0  0  0  0  0  0  0  0  0  0
   -1.9524    2.0217    2.0391 H   0  0  0  0  0  0  0  0  0  0  0  0
   -0.8131   -0.1635    2.0065 H   0  0  0  0  0  0  0  0  0  0  0  0
   -1.8508   -3.0351   -0.0287 H   0  0  0  0  0  0  0  0  0  0  0  0
   -0.7576   -2.4684    1.2552 H   0  0  0  0  0  0  0  0  0  0  0  0
   -0.3821   -1.9824   -1.7826 H   0  0  0  0  0  0  0  0  0  0  0  0
    0.4702   -3.2050   -0.8023 H   0  0  0  0  0  0  0  0  0  0  0  0
    2.0356   -2.4822    1.0626 H   0  0  0  0  0  0  0  0  0  0  0  0
    3.7195   -0.7815    1.7624 H   0  0  0  0  0  0  0  0  0  0  0  0
    3.7637    3.7095   -0.1453 H   0  0  0  0  0  0  0  0  0  0  0  0
    1.6710    2.9198   -1.6213 H   0  0  0  0  0  0  0  0  0  0  0  0
    0.3017    0.3855   -1.6996 H   0  0  0  0  0  0  0  0  0  0  0  0
  1  2  1  0
  2  3  2  0
  3  4  1  0
  4  5  2  0
  5  6  1  0
  6  7  2  0
  7  8  1  0
  8  9  1  0
  9 10  1  0
 10 11  2  0
 11 12  1  0
 12 13  2  0
 13 14  1  0
 14 15  1  0
 15 16  2  0
 16 17  1  0
 17 18  2  0
  7  2  1  0
 17 13  1  0
 18 10  1  0
  3 19  1  0
  4 20  1  0
  5 21  1  0
  6 22  1  0
  8 23  1  0
  8 24  1  0
  9 25  1  0
  9 26  1  0
 11 27  1  0
 12 28  1  0
 15 29  1  0
 16 30  1  0
 18 31  1  0
M  RAD  1   1   3
M  END
$$$$
