
     RDKit          3D

 31 33  0  0  0  0  0  0  0  0999 V2000
   -2.6565   -2.5029   -0.7272 N   0  0  0  0  0  1  0  0  0  0  0  0
   -3.2474   -1.2091   -0.6250 C   0  0  0  0  0  0  0  0  0  0  0  0
   -4.6262   -1.1039   -0.4051 C   0  0  0  0  0  0  0  0  0  0  0  0
   -5.2265    0.1518   -0.2859 C   0  0  0  0  0  0  0  0  0  0  0  0
   -4.4513    1.3091   -0.3812 C   0  0  0  0  0  0  0  0  0  0  0  0
   -3.0745    1.2143   -0.6008 C   0  0  0  0  0  0  0  0  0  0  0  0
   -2.4602   -0.0429   -0.7378 C   0  0  0  0  0  0  0  0  0  0  0  0
   -0.9671   -0.1216   -0.9417 C   0  0  0  0  0  0  0  0  0  0  0  0
   -0.2448   -0.2445    0.4032 C   0  0  0  0  0  0  0  0  0  0  0  0
    1.2432   -0.3262    0.1981 C   0  0  0  0  0  0  0  0  0  0  0  0
    1.8661   -1.5856   -0.0029 C   0  0  0  0  0  0  0  0  0  0  0  0
    3.2520   -1.6722   -0.2297 C   0  0  0  0  0  0  0  0  0  0  0  0
    3.9813   -0.4873   -0.2601 C   0  0  0  0  0  0  0  0  0  0  0  0
    5.2683   -0.3416   -0.4577 O   0  0  0  0  0  0  0  0  0  0  0  0
    5.5357    0.9516   -0.4105 C   0  0  0  0  0  0  0  0  0  0  0  0
    4.3744    1.6795   -0.1726 C   0  0  0  0  0  0  0  0  0  0  0  0
    3.3848    0.7295   -0.0781 C   0  0  0  0  0  0  0  0  0  0  0  0
    2.0168    0.8553    0.1488 C   0  0  0  0  0  0  0  0  0  0  0  0
   -5.2334   -1.9967   -0.3223 H   0  0  0  0  0  0  0  0  0  0  0  0
   -6.2925    0.2276   -0.1145 H   0  0  0  0  0  0  0  0  0  0  0  0
   -4.9171    2.2811   -0.2814 H   0  0  0  0  0  0  0  0  0  0  0  0
   -2.4862    2.1216   -0.6628 H   0  0  0  0  0  0  0  0  0  0  0  0
   -0.6102    0.7886   -1.4730 H   0  0  0  0  0  0  0  0  0  0  0  0
   -0.7151   -0.9906   -1.5880 H   0  0  0  0  0  0  0  0  0  0  0  0
   -0.4890    0.6338    1.0410 H   0  0  0  0  0  0  0  0  0  0  0  0
   -0.5994   -1.1517    0.9402 H   0  0  0  0  0  0  0  0  0  0  0  0
    1.2766   -2.4938    0.0144 H   0  0  0  0  0  0  0  0  0  0  0  0
    3.7345   -2.6290   -0.3807 H   0  0  0  0  0  0  0  0  0  0  0  0
    6.5240    1.3714   -0.5409 H   0  0  0  0  0  0  0  0  0  0  0  0
    4.2743    2.7531   -0.0824 H   0  0  0  0  0  0  0  0  0  0  0  0
    1.5659    1.8313    0.2801 H   0  0  0  0  0  0  0  0  0  0  0  0
  1  2  1  0
  2  3  2  0
  3  4  1  0
  4  5  2  0
  5  6  1  0
  6  7  2  0
  7  8  1  0
  8  9  1  0
  9 10  1  0
 10 11  2  0
 11 12  1  0
 12 13  2  0
 13 14  1  0
 14 15  1  0
 15 16  2  0
 16 17  1  0
 17 18  2  0
  7  2  1  0
 17 13  1  0
 18 10  1  0
  3 19  1  0
  4 20  1  0
  5 21  1  0
  6 22  1  0
  8 23  1  0
  8 24  1  0
  9 25  1  0
  9 26  1  0
 11 27  1  0
 12 28  1  0
 15 29  1  0
 16 30  1  0
 18 31  1  0
M  RAD  1   1   3
M  END
$$$$
