
     RDKit          3D

 31 33  0  0  0  0  0  0  0  0999 V2000
    2.7618   -2.4088   -0.3419 N   0  0  0  0  0  1  0  0  0  0  0  0
    3.2764   -1.1748    0.1542 C   0  0  0  0  0  0  0  0  0  0  0  0
    4.6595   -0.9571    0.1402 C   0  0  0  0  0  0  0  0  0  0  0  0
    5.1872    0.2493    0.6064 C   0  0  0  0  0  0  0  0  0  0  0  0
    4.3352    1.2466    1.0848 C   0  0  0  0  0  0  0  0  0  0  0  0
    2.9534    1.0385    1.1029 C   0  0  0  0  0  0  0  0  0  0  0  0
    2.4103   -0.1769    0.6508 C   0  0  0  0  0  0  0  0  0  0  0  0
    0.9133   -0.3665    0.6492 C   0  0  0  0  0  0  0  0  0  0  0  0
    0.3171    0.0594   -0.6957 C   0  0  0  0  0  0  0  0  0  0  0  0
   -1.1748   -0.1335   -0.6969 C   0  0  0  0  0  0  0  0  0  0  0  0
   -1.7315   -1.3777   -1.0926 C   0  0  0  0  0  0  0  0  0  0  0  0
   -3.1233   -1.5817   -1.0656 C   0  0  0  0  0  0  0  0  0  0  0  0
   -3.9262   -0.5315   -0.6304 C   0  0  0  0  0  0  0  0  0  0  0  0
   -5.2320   -0.5096   -0.5250 O   0  0  0  0  0  0  0  0  0  0  0  0
   -5.5757    0.6817   -0.0683 C   0  0  0  0  0  0  0  0  0  0  0  0
   -4.4469    1.4694    0.1329 C   0  0  0  0  0  0  0  0  0  0  0  0
   -3.3947    0.6655   -0.2377 C   0  0  0  0  0  0  0  0  0  0  0  0
   -2.0230    0.9048   -0.2506 C   0  0  0  0  0  0  0  0  0  0  0  0
    5.3267   -1.7224   -0.2363 H   0  0  0  0  0  0  0  0  0  0  0  0
    6.2570    0.4132    0.5921 H   0  0  0  0  0  0  0  0  0  0  0  0
    4.7454    2.1835    1.4389 H   0  0  0  0  0  0  0  0  0  0  0  0
    2.3058    1.8261    1.4684 H   0  0  0  0  0  0  0  0  0  0  0  0
    0.6627   -1.4301    0.8551 H   0  0  0  0  0  0  0  0  0  0  0  0
    0.4557    0.2355    1.4655 H   0  0  0  0  0  0  0  0  0  0  0  0
    0.7728   -0.5376   -1.5162 H   0  0  0  0  0  0  0  0  0  0  0  0
    0.5585    1.1278   -0.8907 H   0  0  0  0  0  0  0  0  0  0  0  0
   -1.0863   -2.1844   -1.4175 H   0  0  0  0  0  0  0  0  0  0  0  0
   -3.5553   -2.5265   -1.3687 H   0  0  0  0  0  0  0  0  0  0  0  0
   -6.5962    0.9879    0.1188 H   0  0  0  0  0  0  0  0  0  0  0  0
   -4.4077    2.4867    0.4991 H   0  0  0  0  0  0  0  0  0  0  0  0
   -1.6254    1.8582    0.0749 H   0  0  0  0  0  0  0  0  0  0  0  0
  1  2  1  0
  2  3  2  0
  3  4  1  0
  4  5  2  0
  5  6  1  0
  6  7  2  0
  7  8  1  0
  8  9  1  0
  9 10  1  0
 10 11  2  0
 11 12  1  0
 12 13  2  0
 13 14  1  0
 14 15  1  0
 15 16  2  0
 16 17  1  0
 17 18  2  0
  7  2  1  0
 17 13  1  0
 18 10  1  0
  3 19  1  0
  4 20  1  0
  5 21  1  0
  6 22  1  0
  8 23  1  0
  8 24  1  0
  9 25  1  0
  9 26  1  0
 11 27  1  0
 12 28  1  0
 15 29  1  0
 16 30  1  0
 18 31  1  0
M  RAD  1   1   3
M  END
$$$$
