
     RDKit          3D

 31 33  0  0  0  0  0  0  0  0999 V2000
   -2.6301   -2.4798    0.4956 N   0  0  0  0  0  1  0  0  0  0  0  0
   -3.2367   -1.2153    0.2374 C   0  0  0  0  0  0  0  0  0  0  0  0
   -4.6120   -1.1578   -0.0194 C   0  0  0  0  0  0  0  0  0  0  0  0
   -5.2271    0.0668   -0.2903 C   0  0  0  0  0  0  0  0  0  0  0  0
   -4.4702    1.2399   -0.3107 C   0  0  0  0  0  0  0  0  0  0  0  0
   -3.0971    1.1925   -0.0554 C   0  0  0  0  0  0  0  0  0  0  0  0
   -2.4683   -0.0313    0.2336 C   0  0  0  0  0  0  0  0  0  0  0  0
   -0.9789   -0.0626    0.4737 C   0  0  0  0  0  0  0  0  0  0  0  0
   -0.2270   -0.3235   -0.8348 C   0  0  0  0  0  0  0  0  0  0  0  0
    1.2573   -0.3577   -0.5933 C   0  0  0  0  0  0  0  0  0  0  0  0
    1.8934   -1.5765   -0.2403 C   0  0  0  0  0  0  0  0  0  0  0  0
    3.2753   -1.6148    0.0214 C   0  0  0  0  0  0  0  0  0  0  0  0
    3.9873   -0.4223   -0.0674 C   0  0  0  0  0  0  0  0  0  0  0  0
    5.2677   -0.2346    0.1373 O   0  0  0  0  0  0  0  0  0  0  0  0
    5.5180    1.0493   -0.0496 C   0  0  0  0  0  0  0  0  0  0  0  0
    4.3519    1.7272   -0.3900 C   0  0  0  0  0  0  0  0  0  0  0  0
    3.3778    0.7567   -0.3962 C   0  0  0  0  0  0  0  0  0  0  0  0
    2.0133    0.8342   -0.6621 C   0  0  0  0  0  0  0  0  0  0  0  0
   -5.2048   -2.0639   -0.0131 H   0  0  0  0  0  0  0  0  0  0  0  0
   -6.2902    0.1057   -0.4896 H   0  0  0  0  0  0  0  0  0  0  0  0
   -4.9473    2.1869   -0.5280 H   0  0  0  0  0  0  0  0  0  0  0  0
   -2.5229    2.1105   -0.0845 H   0  0  0  0  0  0  0  0  0  0  0  0
   -0.7284   -0.8495    1.2182 H   0  0  0  0  0  0  0  0  0  0  0  0
   -0.6459    0.9070    0.9062 H   0  0  0  0  0  0  0  0  0  0  0  0
   -0.5577   -1.2908   -1.2732 H   0  0  0  0  0  0  0  0  0  0  0  0
   -0.4701    0.4738   -1.5717 H   0  0  0  0  0  0  0  0  0  0  0  0
    1.3170   -2.4903   -0.1668 H   0  0  0  0  0  0  0  0  0  0  0  0
    3.7678   -2.5407    0.2881 H   0  0  0  0  0  0  0  0  0  0  0  0
    6.4975    1.4970    0.0518 H   0  0  0  0  0  0  0  0  0  0  0  0
    4.2388    2.7821   -0.6020 H   0  0  0  0  0  0  0  0  0  0  0  0
    1.5517    1.7819   -0.9107 H   0  0  0  0  0  0  0  0  0  0  0  0
  1  2  1  0
  2  3  2  0
  3  4  1  0
  4  5  2  0
  5  6  1  0
  6  7  2  0
  7  8  1  0
  8  9  1  0
  9 10  1  0
 10 11  2  0
 11 12  1  0
 12 13  2  0
 13 14  1  0
 14 15  1  0
 15 16  2  0
 16 17  1  0
 17 18  2  0
  7  2  1  0
 17 13  1  0
 18 10  1  0
  3 19  1  0
  4 20  1  0
  5 21  1  0
  6 22  1  0
  8 23  1  0
  8 24  1  0
  9 25  1  0
  9 26  1  0
 11 27  1  0
 12 28  1  0
 15 29  1  0
 16 30  1  0
 18 31  1  0
M  RAD  1   1   3
M  END
$$$$
