
     RDKit          3D

 28 29  0  0  0  0  0  0  0  0999 V2000
   -2.9754   -2.6320   -1.0577 N   0  0  0  0  0  1  0  0  0  0  0  0
   -1.6574   -1.8896   -0.2210 S   0  0  0  0  0  0  0  0  0  0  0  0
   -1.6253   -2.4457    1.1740 O   0  0  0  0  0  0  0  0  0  0  0  0
   -0.3832   -2.2363   -0.9366 O   0  0  0  0  0  0  0  0  0  0  0  0
   -1.8633   -0.1274   -0.1891 C   0  0  0  0  0  0  0  0  0  0  0  0
   -2.8344    0.4399   -1.0328 C   0  0  0  0  0  0  0  0  0  0  0  0
   -3.0317    1.8202   -1.0702 C   0  0  0  0  0  0  0  0  0  0  0  0
   -2.2584    2.6577   -0.2715 C   0  0  0  0  0  0  0  0  0  0  0  0
   -1.2840    2.1185    0.5676 C   0  0  0  0  0  0  0  0  0  0  0  0
   -1.0700    0.7276    0.6267 C   0  0  0  0  0  0  0  0  0  0  0  0
    0.0212    0.2150    1.5458 C   0  0  0  0  0  0  0  0  0  0  0  0
    1.2507   -0.2197    0.7874 C   0  0  0  0  0  0  0  0  0  0  0  0
    1.8270   -1.4774    1.0370 C   0  0  0  0  0  0  0  0  0  0  0  0
    2.9822   -1.8730    0.3561 C   0  0  0  0  0  0  0  0  0  0  0  0
    3.5825   -1.0111   -0.5669 C   0  0  0  0  0  0  0  0  0  0  0  0
    5.0318   -1.5095   -1.4199 Cl  0  0  0  0  0  0  0  0  0  0  0  0
    3.0303    0.2515   -0.8032 C   0  0  0  0  0  0  0  0  0  0  0  0
    1.8752    0.6503   -0.1242 C   0  0  0  0  0  0  0  0  0  0  0  0
   -3.4424   -0.1833   -1.6742 H   0  0  0  0  0  0  0  0  0  0  0  0
   -3.7838    2.2415   -1.7248 H   0  0  0  0  0  0  0  0  0  0  0  0
   -2.4104    3.7289   -0.3057 H   0  0  0  0  0  0  0  0  0  0  0  0
   -0.6890    2.7933    1.1708 H   0  0  0  0  0  0  0  0  0  0  0  0
    0.3297    1.0056    2.2640 H   0  0  0  0  0  0  0  0  0  0  0  0
   -0.3766   -0.6029    2.1785 H   0  0  0  0  0  0  0  0  0  0  0  0
    1.3783   -2.1560    1.7517 H   0  0  0  0  0  0  0  0  0  0  0  0
    3.4106   -2.8483    0.5485 H   0  0  0  0  0  0  0  0  0  0  0  0
    3.4973    0.9262   -1.5094 H   0  0  0  0  0  0  0  0  0  0  0  0
    1.4684    1.6360   -0.3105 H   0  0  0  0  0  0  0  0  0  0  0  0
  1  2  1  0
  2  3  2  0
  2  4  2  0
  2  5  1  0
  5  6  2  0
  6  7  1  0
  7  8  2  0
  8  9  1  0
  9 10  2  0
 10 11  1  0
 11 12  1  0
 12 13  1  0
 13 14  2  0
 14 15  1  0
 15 16  1  0
 15 17  2  0
 17 18  1  0
 10  5  1  0
 18 12  2  0
  6 19  1  0
  7 20  1  0
  8 21  1  0
  9 22  1  0
 11 23  1  0
 11 24  1  0
 13 25  1  0
 14 26  1  0
 17 27  1  0
 18 28  1  0
M  RAD  1   1   3
M  END
$$$$
