
     RDKit          3D

 28 29  0  0  0  0  0  0  0  0999 V2000
   -2.9381   -2.6187   -1.3009 N   0  0  0  0  0  1  0  0  0  0  0  0
   -1.5861   -1.9275   -0.4748 S   0  0  0  0  0  0  0  0  0  0  0  0
   -1.4056   -2.6719    0.8173 O   0  0  0  0  0  0  0  0  0  0  0  0
   -0.3659   -2.0962   -1.3342 O   0  0  0  0  0  0  0  0  0  0  0  0
   -1.8675   -0.2021   -0.1705 C   0  0  0  0  0  0  0  0  0  0  0  0
   -2.9341    0.4219   -0.8412 C   0  0  0  0  0  0  0  0  0  0  0  0
   -3.1959    1.7800   -0.6614 C   0  0  0  0  0  0  0  0  0  0  0  0
   -2.3935    2.5396    0.1852 C   0  0  0  0  0  0  0  0  0  0  0  0
   -1.3254    1.9442    0.8552 C   0  0  0  0  0  0  0  0  0  0  0  0
   -1.0445    0.5734    0.6939 C   0  0  0  0  0  0  0  0  0  0  0  0
    0.1457   -0.0002    1.4372 C   0  0  0  0  0  0  0  0  0  0  0  0
    1.3216   -0.2525    0.5265 C   0  0  0  0  0  0  0  0  0  0  0  0
    1.9739   -1.4976    0.5430 C   0  0  0  0  0  0  0  0  0  0  0  0
    3.0809   -1.7264   -0.2796 C   0  0  0  0  0  0  0  0  0  0  0  0
    3.5577   -0.7101   -1.1131 C   0  0  0  0  0  0  0  0  0  0  0  0
    4.9468   -0.9993   -2.1443 Cl  0  0  0  0  0  0  0  0  0  0  0  0
    2.9304    0.5395   -1.1179 C   0  0  0  0  0  0  0  0  0  0  0  0
    1.8231    0.7717   -0.2967 C   0  0  0  0  0  0  0  0  0  0  0  0
   -3.5678   -0.1385   -1.5149 H   0  0  0  0  0  0  0  0  0  0  0  0
   -4.0212    2.2456   -1.1846 H   0  0  0  0  0  0  0  0  0  0  0  0
   -2.5962    3.5943    0.3195 H   0  0  0  0  0  0  0  0  0  0  0  0
   -0.7104    2.5601    1.4998 H   0  0  0  0  0  0  0  0  0  0  0  0
    0.4805    0.6976    2.2352 H   0  0  0  0  0  0  0  0  0  0  0  0
   -0.1573   -0.9206    1.9744 H   0  0  0  0  0  0  0  0  0  0  0  0
    1.6212   -2.2948    1.1855 H   0  0  0  0  0  0  0  0  0  0  0  0
    3.5682   -2.6930   -0.2665 H   0  0  0  0  0  0  0  0  0  0  0  0
    3.3022    1.3327   -1.7540 H   0  0  0  0  0  0  0  0  0  0  0  0
    1.3574    1.7489   -0.3041 H   0  0  0  0  0  0  0  0  0  0  0  0
  1  2  1  0
  2  3  2  0
  2  4  2  0
  2  5  1  0
  5  6  2  0
  6  7  1  0
  7  8  2  0
  8  9  1  0
  9 10  2  0
 10 11  1  0
 11 12  1  0
 12 13  1  0
 13 14  2  0
 14 15  1  0
 15 16  1  0
 15 17  2  0
 17 18  1  0
 10  5  1  0
 18 12  2  0
  6 19  1  0
  7 20  1  0
  8 21  1  0
  9 22  1  0
 11 23  1  0
 11 24  1  0
 13 25  1  0
 14 26  1  0
 17 27  1  0
 18 28  1  0
M  RAD  1   1   3
M  END
$$$$
