
     RDKit          3D

 28 29  0  0  0  0  0  0  0  0999 V2000
   -0.3126   -4.0904    0.3611 N   0  0  0  0  0  1  0  0  0  0  0  0
   -0.2023   -2.4992   -0.3052 S   0  0  0  0  0  0  0  0  0  0  0  0
   -0.7588   -2.5438   -1.6997 O   0  0  0  0  0  0  0  0  0  0  0  0
    1.2449   -2.0997   -0.3473 O   0  0  0  0  0  0  0  0  0  0  0  0
   -1.1099   -1.3488    0.6957 C   0  0  0  0  0  0  0  0  0  0  0  0
   -1.5305   -1.7696    1.9696 C   0  0  0  0  0  0  0  0  0  0  0  0
   -2.2300   -0.9070    2.8134 C   0  0  0  0  0  0  0  0  0  0  0  0
   -2.5152    0.3921    2.4028 C   0  0  0  0  0  0  0  0  0  0  0  0
   -2.1016    0.8342    1.1467 C   0  0  0  0  0  0  0  0  0  0  0  0
   -1.3988   -0.0201    0.2749 C   0  0  0  0  0  0  0  0  0  0  0  0
   -0.9622    0.5361   -1.0661 C   0  0  0  0  0  0  0  0  0  0  0  0
    0.5163    0.8326   -1.1086 C   0  0  0  0  0  0  0  0  0  0  0  0
    1.3026    0.3550   -2.1715 C   0  0  0  0  0  0  0  0  0  0  0  0
    2.6678    0.6505   -2.2290 C   0  0  0  0  0  0  0  0  0  0  0  0
    3.2574    1.4393   -1.2364 C   0  0  0  0  0  0  0  0  0  0  0  0
    4.9704    1.8090   -1.3106 Cl  0  0  0  0  0  0  0  0  0  0  0  0
    2.4780    1.9394   -0.1887 C   0  0  0  0  0  0  0  0  0  0  0  0
    1.1126    1.6457   -0.1281 C   0  0  0  0  0  0  0  0  0  0  0  0
   -1.3134   -2.7687    2.3221 H   0  0  0  0  0  0  0  0  0  0  0  0
   -2.5473   -1.2462    3.7911 H   0  0  0  0  0  0  0  0  0  0  0  0
   -3.0542    1.0609    3.0614 H   0  0  0  0  0  0  0  0  0  0  0  0
   -2.3273    1.8529    0.8561 H   0  0  0  0  0  0  0  0  0  0  0  0
   -1.2606   -0.1601   -1.8746 H   0  0  0  0  0  0  0  0  0  0  0  0
   -1.5026    1.4813   -1.2910 H   0  0  0  0  0  0  0  0  0  0  0  0
    0.8620   -0.2535   -2.9514 H   0  0  0  0  0  0  0  0  0  0  0  0
    3.2655    0.2678   -3.0465 H   0  0  0  0  0  0  0  0  0  0  0  0
    2.9279    2.5589    0.5766 H   0  0  0  0  0  0  0  0  0  0  0  0
    0.5220    2.0514    0.6834 H   0  0  0  0  0  0  0  0  0  0  0  0
  1  2  1  0
  2  3  2  0
  2  4  2  0
  2  5  1  0
  5  6  2  0
  6  7  1  0
  7  8  2  0
  8  9  1  0
  9 10  2  0
 10 11  1  0
 11 12  1  0
 12 13  1  0
 13 14  2  0
 14 15  1  0
 15 16  1  0
 15 17  2  0
 17 18  1  0
 10  5  1  0
 18 12  2  0
  6 19  1  0
  7 20  1  0
  8 21  1  0
  9 22  1  0
 11 23  1  0
 11 24  1  0
 13 25  1  0
 14 26  1  0
 17 27  1  0
 18 28  1  0
M  RAD  1   1   3
M  END
$$$$
