
     RDKit          3D

 28 29  0  0  0  0  0  0  0  0999 V2000
   -1.0652    3.2159   -0.1220 N   0  0  0  0  0  1  0  0  0  0  0  0
   -2.2559    2.2414   -0.9070 S   0  0  0  0  0  0  0  0  0  0  0  0
   -2.0553    2.2927   -2.3955 O   0  0  0  0  0  0  0  0  0  0  0  0
   -3.6144    2.8010   -0.5896 O   0  0  0  0  0  0  0  0  0  0  0  0
   -2.1336    0.5635   -0.3466 C   0  0  0  0  0  0  0  0  0  0  0  0
   -3.2334    0.0077    0.3307 C   0  0  0  0  0  0  0  0  0  0  0  0
   -3.2154   -1.3215    0.7534 C   0  0  0  0  0  0  0  0  0  0  0  0
   -2.1034   -2.1197    0.4998 C   0  0  0  0  0  0  0  0  0  0  0  0
   -0.9998   -1.5882   -0.1666 C   0  0  0  0  0  0  0  0  0  0  0  0
   -0.9844   -0.2420   -0.5817 C   0  0  0  0  0  0  0  0  0  0  0  0
    0.2571    0.2668   -1.2881 C   0  0  0  0  0  0  0  0  0  0  0  0
    1.4797    0.1203   -0.4164 C   0  0  0  0  0  0  0  0  0  0  0  0
    1.6308    0.9183    0.7299 C   0  0  0  0  0  0  0  0  0  0  0  0
    2.7562    0.7745    1.5469 C   0  0  0  0  0  0  0  0  0  0  0  0
    3.7386   -0.1682    1.2280 C   0  0  0  0  0  0  0  0  0  0  0  0
    5.1490   -0.3484    2.2551 Cl  0  0  0  0  0  0  0  0  0  0  0  0
    3.5937   -0.9692    0.0907 C   0  0  0  0  0  0  0  0  0  0  0  0
    2.4693   -0.8277   -0.7284 C   0  0  0  0  0  0  0  0  0  0  0  0
   -4.1171    0.5994    0.5294 H   0  0  0  0  0  0  0  0  0  0  0  0
   -4.0707   -1.7359    1.2714 H   0  0  0  0  0  0  0  0  0  0  0  0
   -2.0957   -3.1536    0.8199 H   0  0  0  0  0  0  0  0  0  0  0  0
   -0.1477   -2.2295   -0.3556 H   0  0  0  0  0  0  0  0  0  0  0  0
    0.3802   -0.3048   -2.2336 H   0  0  0  0  0  0  0  0  0  0  0  0
    0.1805    1.3286   -1.5853 H   0  0  0  0  0  0  0  0  0  0  0  0
    0.8751    1.6460    0.9940 H   0  0  0  0  0  0  0  0  0  0  0  0
    2.8620    1.3944    2.4281 H   0  0  0  0  0  0  0  0  0  0  0  0
    4.3501   -1.7024   -0.1586 H   0  0  0  0  0  0  0  0  0  0  0  0
    2.3699   -1.4595   -1.6022 H   0  0  0  0  0  0  0  0  0  0  0  0
  1  2  1  0
  2  3  2  0
  2  4  2  0
  2  5  1  0
  5  6  2  0
  6  7  1  0
  7  8  2  0
  8  9  1  0
  9 10  2  0
 10 11  1  0
 11 12  1  0
 12 13  1  0
 13 14  2  0
 14 15  1  0
 15 16  1  0
 15 17  2  0
 17 18  1  0
 10  5  1  0
 18 12  2  0
  6 19  1  0
  7 20  1  0
  8 21  1  0
  9 22  1  0
 11 23  1  0
 11 24  1  0
 13 25  1  0
 14 26  1  0
 17 27  1  0
 18 28  1  0
M  RAD  1   1   3
M  END
$$$$
