
     RDKit          3D

 28 29  0  0  0  0  0  0  0  0999 V2000
   -2.5673   -2.7324   -1.7036 N   0  0  0  0  0  1  0  0  0  0  0  0
   -1.3557   -2.0119   -0.7031 S   0  0  0  0  0  0  0  0  0  0  0  0
   -0.0636   -1.9798   -1.4681 O   0  0  0  0  0  0  0  0  0  0  0  0
   -1.2009   -2.8673    0.5219 O   0  0  0  0  0  0  0  0  0  0  0  0
   -1.8272   -0.3598   -0.2589 C   0  0  0  0  0  0  0  0  0  0  0  0
   -2.8963    0.2319   -0.9544 C   0  0  0  0  0  0  0  0  0  0  0  0
   -3.3029    1.5349   -0.6673 C   0  0  0  0  0  0  0  0  0  0  0  0
   -2.6450    2.2714    0.3134 C   0  0  0  0  0  0  0  0  0  0  0  0
   -1.5771    1.7082    1.0111 C   0  0  0  0  0  0  0  0  0  0  0  0
   -1.1517    0.3926    0.7429 C   0  0  0  0  0  0  0  0  0  0  0  0
    0.0296   -0.1458    1.5256 C   0  0  0  0  0  0  0  0  0  0  0  0
    1.2899   -0.1951    0.6979 C   0  0  0  0  0  0  0  0  0  0  0  0
    2.0581   -1.3714    0.6496 C   0  0  0  0  0  0  0  0  0  0  0  0
    3.2410   -1.4128   -0.0943 C   0  0  0  0  0  0  0  0  0  0  0  0
    3.6772   -0.2765   -0.7826 C   0  0  0  0  0  0  0  0  0  0  0  0
    5.1617   -0.3307   -1.7152 Cl  0  0  0  0  0  0  0  0  0  0  0  0
    2.9325    0.9052   -0.7200 C   0  0  0  0  0  0  0  0  0  0  0  0
    1.7490    0.9501    0.0228 C   0  0  0  0  0  0  0  0  0  0  0  0
   -3.4194   -0.3101   -1.7303 H   0  0  0  0  0  0  0  0  0  0  0  0
   -4.1281    1.9761   -1.2114 H   0  0  0  0  0  0  0  0  0  0  0  0
   -2.9596    3.2840    0.5311 H   0  0  0  0  0  0  0  0  0  0  0  0
   -1.0758    2.3067    1.7619 H   0  0  0  0  0  0  0  0  0  0  0  0
   -0.2212   -1.1405    1.9440 H   0  0  0  0  0  0  0  0  0  0  0  0
    0.2334    0.4926    2.4128 H   0  0  0  0  0  0  0  0  0  0  0  0
    1.7379   -2.2595    1.1800 H   0  0  0  0  0  0  0  0  0  0  0  0
    3.8184   -2.3277   -0.1331 H   0  0  0  0  0  0  0  0  0  0  0  0
    3.2715    1.7905   -1.2429 H   0  0  0  0  0  0  0  0  0  0  0  0
    1.1916    1.8769    0.0702 H   0  0  0  0  0  0  0  0  0  0  0  0
  1  2  1  0
  2  3  2  0
  2  4  2  0
  2  5  1  0
  5  6  2  0
  6  7  1  0
  7  8  2  0
  8  9  1  0
  9 10  2  0
 10 11  1  0
 11 12  1  0
 12 13  1  0
 13 14  2  0
 14 15  1  0
 15 16  1  0
 15 17  2  0
 17 18  1  0
 10  5  1  0
 18 12  2  0
  6 19  1  0
  7 20  1  0
  8 21  1  0
  9 22  1  0
 11 23  1  0
 11 24  1  0
 13 25  1  0
 14 26  1  0
 17 27  1  0
 18 28  1  0
M  RAD  1   1   3
M  END
$$$$
