
     RDKit          3D

 28 29  0  0  0  0  0  0  0  0999 V2000
    1.4399   -2.3775   -1.9303 N   0  0  0  0  0  1  0  0  0  0  0  0
    2.5786   -1.9422   -0.7066 S   0  0  0  0  0  0  0  0  0  0  0  0
    3.9563   -1.9669   -1.3073 O   0  0  0  0  0  0  0  0  0  0  0  0
    2.5293   -2.9425    0.4139 O   0  0  0  0  0  0  0  0  0  0  0  0
    2.2082   -0.3257   -0.0790 C   0  0  0  0  0  0  0  0  0  0  0  0
    3.1654    0.6896   -0.2526 C   0  0  0  0  0  0  0  0  0  0  0  0
    2.9519    1.9689    0.2608 C   0  0  0  0  0  0  0  0  0  0  0  0
    1.7839    2.2533    0.9629 C   0  0  0  0  0  0  0  0  0  0  0  0
    0.8191    1.2629    1.1434 C   0  0  0  0  0  0  0  0  0  0  0  0
    1.0007   -0.0297    0.6133 C   0  0  0  0  0  0  0  0  0  0  0  0
   -0.0992   -1.0486    0.8392 C   0  0  0  0  0  0  0  0  0  0  0  0
   -1.4086   -0.5761    0.2576 C   0  0  0  0  0  0  0  0  0  0  0  0
   -1.5751   -0.4932   -1.1349 C   0  0  0  0  0  0  0  0  0  0  0  0
   -2.7828   -0.0424   -1.6760 C   0  0  0  0  0  0  0  0  0  0  0  0
   -3.8333    0.3316   -0.8320 C   0  0  0  0  0  0  0  0  0  0  0  0
   -5.3472    0.8986   -1.5126 Cl  0  0  0  0  0  0  0  0  0  0  0  0
   -3.6742    0.2556    0.5554 C   0  0  0  0  0  0  0  0  0  0  0  0
   -2.4675   -0.1949    1.0996 C   0  0  0  0  0  0  0  0  0  0  0  0
    4.0889    0.4944   -0.7814 H   0  0  0  0  0  0  0  0  0  0  0  0
    3.6993    2.7393    0.1213 H   0  0  0  0  0  0  0  0  0  0  0  0
    1.6250    3.2439    1.3691 H   0  0  0  0  0  0  0  0  0  0  0  0
   -0.0799    1.5070    1.6961 H   0  0  0  0  0  0  0  0  0  0  0  0
   -0.1968   -1.2207    1.9333 H   0  0  0  0  0  0  0  0  0  0  0  0
    0.1290   -2.0358    0.3977 H   0  0  0  0  0  0  0  0  0  0  0  0
   -0.7686   -0.7710   -1.8003 H   0  0  0  0  0  0  0  0  0  0  0  0
   -2.8998    0.0181   -2.7505 H   0  0  0  0  0  0  0  0  0  0  0  0
   -4.4835    0.5467    1.2127 H   0  0  0  0  0  0  0  0  0  0  0  0
   -2.3590   -0.2426    2.1759 H   0  0  0  0  0  0  0  0  0  0  0  0
  1  2  1  0
  2  3  2  0
  2  4  2  0
  2  5  1  0
  5  6  2  0
  6  7  1  0
  7  8  2  0
  8  9  1  0
  9 10  2  0
 10 11  1  0
 11 12  1  0
 12 13  1  0
 13 14  2  0
 14 15  1  0
 15 16  1  0
 15 17  2  0
 17 18  1  0
 10  5  1  0
 18 12  2  0
  6 19  1  0
  7 20  1  0
  8 21  1  0
  9 22  1  0
 11 23  1  0
 11 24  1  0
 13 25  1  0
 14 26  1  0
 17 27  1  0
 18 28  1  0
M  RAD  1   1   3
M  END
$$$$
