
     RDKit          3D

 28 29  0  0  0  0  0  0  0  0999 V2000
   -2.4412    2.2698   -2.4182 N   0  0  0  0  0  1  0  0  0  0  0  0
   -1.1007    1.3519   -1.8278 S   0  0  0  0  0  0  0  0  0  0  0  0
   -0.3138    0.8705   -3.0132 O   0  0  0  0  0  0  0  0  0  0  0  0
   -0.2457    2.2493   -0.9796 O   0  0  0  0  0  0  0  0  0  0  0  0
   -1.6735   -0.0186   -0.8569 C   0  0  0  0  0  0  0  0  0  0  0  0
   -3.0229   -0.0309   -0.4624 C   0  0  0  0  0  0  0  0  0  0  0  0
   -3.5308   -1.0689    0.3187 C   0  0  0  0  0  0  0  0  0  0  0  0
   -2.6988   -2.1081    0.7250 C   0  0  0  0  0  0  0  0  0  0  0  0
   -1.3552   -2.1135    0.3524 C   0  0  0  0  0  0  0  0  0  0  0  0
   -0.8206   -1.0794   -0.4405 C   0  0  0  0  0  0  0  0  0  0  0  0
    0.6535   -1.1405   -0.7886 C   0  0  0  0  0  0  0  0  0  0  0  0
    1.4713   -0.1555    0.0094 C   0  0  0  0  0  0  0  0  0  0  0  0
    1.3952   -0.1326    1.4136 C   0  0  0  0  0  0  0  0  0  0  0  0
    2.1763    0.7638    2.1489 C   0  0  0  0  0  0  0  0  0  0  0  0
    3.0523    1.6334    1.4919 C   0  0  0  0  0  0  0  0  0  0  0  0
    4.0315    2.7574    2.4163 Cl  0  0  0  0  0  0  0  0  0  0  0  0
    3.1525    1.6003    0.0977 C   0  0  0  0  0  0  0  0  0  0  0  0
    2.3729    0.7050   -0.6407 C   0  0  0  0  0  0  0  0  0  0  0  0
   -3.6914    0.7685   -0.7518 H   0  0  0  0  0  0  0  0  0  0  0  0
   -4.5722   -1.0640    0.6137 H   0  0  0  0  0  0  0  0  0  0  0  0
   -3.0944   -2.9101    1.3349 H   0  0  0  0  0  0  0  0  0  0  0  0
   -0.7272   -2.9286    0.6908 H   0  0  0  0  0  0  0  0  0  0  0  0
    0.7868   -0.9909   -1.8783 H   0  0  0  0  0  0  0  0  0  0  0  0
    1.0597   -2.1560   -0.5893 H   0  0  0  0  0  0  0  0  0  0  0  0
    0.7314   -0.8070    1.9394 H   0  0  0  0  0  0  0  0  0  0  0  0
    2.1028    0.7787    3.2288 H   0  0  0  0  0  0  0  0  0  0  0  0
    3.8353    2.2660   -0.4148 H   0  0  0  0  0  0  0  0  0  0  0  0
    2.4670    0.6901   -1.7194 H   0  0  0  0  0  0  0  0  0  0  0  0
  1  2  1  0
  2  3  2  0
  2  4  2  0
  2  5  1  0
  5  6  2  0
  6  7  1  0
  7  8  2  0
  8  9  1  0
  9 10  2  0
 10 11  1  0
 11 12  1  0
 12 13  1  0
 13 14  2  0
 14 15  1  0
 15 16  1  0
 15 17  2  0
 17 18  1  0
 10  5  1  0
 18 12  2  0
  6 19  1  0
  7 20  1  0
  8 21  1  0
  9 22  1  0
 11 23  1  0
 11 24  1  0
 13 25  1  0
 14 26  1  0
 17 27  1  0
 18 28  1  0
M  RAD  1   1   3
M  END
$$$$
