
     RDKit          3D

 28 29  0  0  0  0  0  0  0  0999 V2000
   -2.6958    3.1110    0.1171 N   0  0  0  0  0  1  0  0  0  0  0  0
   -1.5212    1.9690   -0.4345 S   0  0  0  0  0  0  0  0  0  0  0  0
   -1.6213    1.8914   -1.9313 O   0  0  0  0  0  0  0  0  0  0  0  0
   -0.1577    2.4602   -0.0404 O   0  0  0  0  0  0  0  0  0  0  0  0
   -1.8174    0.3797    0.2971 C   0  0  0  0  0  0  0  0  0  0  0  0
   -2.7126    0.3066    1.3787 C   0  0  0  0  0  0  0  0  0  0  0  0
   -2.9732   -0.9090    2.0110 C   0  0  0  0  0  0  0  0  0  0  0  0
   -2.3394   -2.0705    1.5791 C   0  0  0  0  0  0  0  0  0  0  0  0
   -1.4418   -2.0212    0.5132 C   0  0  0  0  0  0  0  0  0  0  0  0
   -1.1666   -0.8066   -0.1447 C   0  0  0  0  0  0  0  0  0  0  0  0
   -0.1636   -0.8254   -1.2813 C   0  0  0  0  0  0  0  0  0  0  0  0
    1.1649   -0.2327   -0.8820 C   0  0  0  0  0  0  0  0  0  0  0  0
    1.7711    0.7485   -1.6856 C   0  0  0  0  0  0  0  0  0  0  0  0
    3.0150    1.2807   -1.3335 C   0  0  0  0  0  0  0  0  0  0  0  0
    3.6732    0.8268   -0.1865 C   0  0  0  0  0  0  0  0  0  0  0  0
    5.2339    1.4958    0.2532 Cl  0  0  0  0  0  0  0  0  0  0  0  0
    3.0892   -0.1668    0.6053 C   0  0  0  0  0  0  0  0  0  0  0  0
    1.8454   -0.7010    0.2563 C   0  0  0  0  0  0  0  0  0  0  0  0
   -3.2112    1.1934    1.7454 H   0  0  0  0  0  0  0  0  0  0  0  0
   -3.6655   -0.9488    2.8422 H   0  0  0  0  0  0  0  0  0  0  0  0
   -2.5400   -3.0118    2.0745 H   0  0  0  0  0  0  0  0  0  0  0  0
   -0.9544   -2.9377    0.2038 H   0  0  0  0  0  0  0  0  0  0  0  0
    0.0205   -1.8676   -1.6218 H   0  0  0  0  0  0  0  0  0  0  0  0
   -0.5898   -0.3099   -2.1645 H   0  0  0  0  0  0  0  0  0  0  0  0
    1.2780    1.1088   -2.5799 H   0  0  0  0  0  0  0  0  0  0  0  0
    3.4669    2.0440   -1.9542 H   0  0  0  0  0  0  0  0  0  0  0  0
    3.5996   -0.5287    1.4888 H   0  0  0  0  0  0  0  0  0  0  0  0
    1.4138   -1.4782    0.8741 H   0  0  0  0  0  0  0  0  0  0  0  0
  1  2  1  0
  2  3  2  0
  2  4  2  0
  2  5  1  0
  5  6  2  0
  6  7  1  0
  7  8  2  0
  8  9  1  0
  9 10  2  0
 10 11  1  0
 11 12  1  0
 12 13  1  0
 13 14  2  0
 14 15  1  0
 15 16  1  0
 15 17  2  0
 17 18  1  0
 10  5  1  0
 18 12  2  0
  6 19  1  0
  7 20  1  0
  8 21  1  0
  9 22  1  0
 11 23  1  0
 11 24  1  0
 13 25  1  0
 14 26  1  0
 17 27  1  0
 18 28  1  0
M  RAD  1   1   3
M  END
$$$$
