
     RDKit          3D

 28 29  0  0  0  0  0  0  0  0999 V2000
   -1.7837    2.4966    1.4414 N   0  0  0  0  0  1  0  0  0  0  0  0
   -2.7547    1.8202    0.1832 S   0  0  0  0  0  0  0  0  0  0  0  0
   -4.1882    1.8199    0.6356 O   0  0  0  0  0  0  0  0  0  0  0  0
   -2.6459    2.6658   -1.0545 O   0  0  0  0  0  0  0  0  0  0  0  0
   -2.2206    0.1678   -0.1751 C   0  0  0  0  0  0  0  0  0  0  0  0
   -3.1272   -0.8850    0.0418 C   0  0  0  0  0  0  0  0  0  0  0  0
   -2.7817   -2.2008   -0.2662 C   0  0  0  0  0  0  0  0  0  0  0  0
   -1.5296   -2.4864   -0.8033 C   0  0  0  0  0  0  0  0  0  0  0  0
   -0.6132   -1.4586   -1.0229 C   0  0  0  0  0  0  0  0  0  0  0  0
   -0.9297   -0.1250   -0.6972 C   0  0  0  0  0  0  0  0  0  0  0  0
    0.1240    0.9352   -0.9521 C   0  0  0  0  0  0  0  0  0  0  0  0
    1.3893    0.6428   -0.1843 C   0  0  0  0  0  0  0  0  0  0  0  0
    2.5542    0.2352   -0.8566 C   0  0  0  0  0  0  0  0  0  0  0  0
    3.7203   -0.0481   -0.1388 C   0  0  0  0  0  0  0  0  0  0  0  0
    3.7329    0.0707    1.2546 C   0  0  0  0  0  0  0  0  0  0  0  0
    5.1962   -0.2868    2.1532 Cl  0  0  0  0  0  0  0  0  0  0  0  0
    2.5765    0.4721    1.9308 C   0  0  0  0  0  0  0  0  0  0  0  0
    1.4091    0.7561    1.2160 C   0  0  0  0  0  0  0  0  0  0  0  0
   -4.1126   -0.6920    0.4446 H   0  0  0  0  0  0  0  0  0  0  0  0
   -3.4914   -3.0003   -0.0960 H   0  0  0  0  0  0  0  0  0  0  0  0
   -1.2675   -3.5070   -1.0509 H   0  0  0  0  0  0  0  0  0  0  0  0
    0.3534   -1.7048   -1.4449 H   0  0  0  0  0  0  0  0  0  0  0  0
   -0.2104    1.9519   -0.6760 H   0  0  0  0  0  0  0  0  0  0  0  0
    0.3284    0.9692   -2.0444 H   0  0  0  0  0  0  0  0  0  0  0  0
    2.5599    0.1329   -1.9346 H   0  0  0  0  0  0  0  0  0  0  0  0
    4.6122   -0.3614   -0.6664 H   0  0  0  0  0  0  0  0  0  0  0  0
    2.5802    0.5621    3.0096 H   0  0  0  0  0  0  0  0  0  0  0  0
    0.5199    1.0574    1.7535 H   0  0  0  0  0  0  0  0  0  0  0  0
  1  2  1  0
  2  3  2  0
  2  4  2  0
  2  5  1  0
  5  6  2  0
  6  7  1  0
  7  8  2  0
  8  9  1  0
  9 10  2  0
 10 11  1  0
 11 12  1  0
 12 13  1  0
 13 14  2  0
 14 15  1  0
 15 16  1  0
 15 17  2  0
 17 18  1  0
 10  5  1  0
 18 12  2  0
  6 19  1  0
  7 20  1  0
  8 21  1  0
  9 22  1  0
 11 23  1  0
 11 24  1  0
 13 25  1  0
 14 26  1  0
 17 27  1  0
 18 28  1  0
M  RAD  1   1   3
M  END
$$$$
