
     RDKit          3D

 28 29  0  0  0  0  0  0  0  0999 V2000
   -2.6823    2.8253    1.3089 N   0  0  0  0  0  1  0  0  0  0  0  0
   -1.4127    2.0424    0.4352 S   0  0  0  0  0  0  0  0  0  0  0  0
   -1.2047    2.7944   -0.8483 O   0  0  0  0  0  0  0  0  0  0  0  0
   -0.1615    2.0947    1.2644 O   0  0  0  0  0  0  0  0  0  0  0  0
   -1.8421    0.3518    0.1090 C   0  0  0  0  0  0  0  0  0  0  0  0
   -2.9388   -0.1962    0.7973 C   0  0  0  0  0  0  0  0  0  0  0  0
   -3.3154   -1.5248    0.6013 C   0  0  0  0  0  0  0  0  0  0  0  0
   -2.5995   -2.3306   -0.2793 C   0  0  0  0  0  0  0  0  0  0  0  0
   -1.5036   -1.8113   -0.9674 C   0  0  0  0  0  0  0  0  0  0  0  0
   -1.1074   -0.4714   -0.7903 C   0  0  0  0  0  0  0  0  0  0  0  0
    0.1066    0.0178   -1.5552 C   0  0  0  0  0  0  0  0  0  0  0  0
    1.3218    0.1560   -0.6721 C   0  0  0  0  0  0  0  0  0  0  0  0
    2.0732    1.3440   -0.6848 C   0  0  0  0  0  0  0  0  0  0  0  0
    3.2157    1.4660    0.1117 C   0  0  0  0  0  0  0  0  0  0  0  0
    3.6286    0.3984    0.9146 C   0  0  0  0  0  0  0  0  0  0  0  0
    5.0624    0.5537    1.9130 Cl  0  0  0  0  0  0  0  0  0  0  0  0
    2.9015   -0.7959    0.9147 C   0  0  0  0  0  0  0  0  0  0  0  0
    1.7585   -0.9213    0.1196 C   0  0  0  0  0  0  0  0  0  0  0  0
   -3.5073    0.4008    1.4973 H   0  0  0  0  0  0  0  0  0  0  0  0
   -4.1625   -1.9317    1.1384 H   0  0  0  0  0  0  0  0  0  0  0  0
   -2.8911   -3.3626   -0.4262 H   0  0  0  0  0  0  0  0  0  0  0  0
   -0.9575   -2.4628   -1.6388 H   0  0  0  0  0  0  0  0  0  0  0  0
    0.3629   -0.6894   -2.3738 H   0  0  0  0  0  0  0  0  0  0  0  0
   -0.1335    0.9699   -2.0682 H   0  0  0  0  0  0  0  0  0  0  0  0
    1.7708    2.1794   -1.3038 H   0  0  0  0  0  0  0  0  0  0  0  0
    3.7800    2.3898    0.1021 H   0  0  0  0  0  0  0  0  0  0  0  0
    3.2231   -1.6288    1.5269 H   0  0  0  0  0  0  0  0  0  0  0  0
    1.2148   -1.8574    0.1227 H   0  0  0  0  0  0  0  0  0  0  0  0
  1  2  1  0
  2  3  2  0
  2  4  2  0
  2  5  1  0
  5  6  2  0
  6  7  1  0
  7  8  2  0
  8  9  1  0
  9 10  2  0
 10 11  1  0
 11 12  1  0
 12 13  1  0
 13 14  2  0
 14 15  1  0
 15 16  1  0
 15 17  2  0
 17 18  1  0
 10  5  1  0
 18 12  2  0
  6 19  1  0
  7 20  1  0
  8 21  1  0
  9 22  1  0
 11 23  1  0
 11 24  1  0
 13 25  1  0
 14 26  1  0
 17 27  1  0
 18 28  1  0
M  RAD  1   1   3
M  END
$$$$
