
     RDKit          3D

 28 29  0  0  0  0  0  0  0  0999 V2000
   -1.6135    2.9069    0.6623 N   0  0  0  0  0  1  0  0  0  0  0  0
   -2.7708    1.8050    0.0066 S   0  0  0  0  0  0  0  0  0  0  0  0
   -2.9613    2.0788   -1.4588 O   0  0  0  0  0  0  0  0  0  0  0  0
   -4.0836    2.0205    0.7064 O   0  0  0  0  0  0  0  0  0  0  0  0
   -2.2174    0.1358    0.2339 C   0  0  0  0  0  0  0  0  0  0  0  0
   -2.9965   -0.7192    1.0335 C   0  0  0  0  0  0  0  0  0  0  0  0
   -2.6384   -2.0556    1.2107 C   0  0  0  0  0  0  0  0  0  0  0  0
   -1.5022   -2.5626    0.5863 C   0  0  0  0  0  0  0  0  0  0  0  0
   -0.7124   -1.7317   -0.2077 C   0  0  0  0  0  0  0  0  0  0  0  0
   -1.0398   -0.3727   -0.3821 C   0  0  0  0  0  0  0  0  0  0  0  0
   -0.1247    0.4703   -1.2489 C   0  0  0  0  0  0  0  0  0  0  0  0
    1.2830    0.4814   -0.7066 C   0  0  0  0  0  0  0  0  0  0  0  0
    2.3148   -0.1896   -1.3853 C   0  0  0  0  0  0  0  0  0  0  0  0
    3.6150   -0.1880   -0.8710 C   0  0  0  0  0  0  0  0  0  0  0  0
    3.8957    0.4807    0.3248 C   0  0  0  0  0  0  0  0  0  0  0  0
    5.5272    0.4800    0.9691 Cl  0  0  0  0  0  0  0  0  0  0  0  0
    2.8735    1.1473    1.0077 C   0  0  0  0  0  0  0  0  0  0  0  0
    1.5725    1.1475    0.4960 C   0  0  0  0  0  0  0  0  0  0  0  0
   -3.8926   -0.3572    1.5198 H   0  0  0  0  0  0  0  0  0  0  0  0
   -3.2497   -2.7022    1.8271 H   0  0  0  0  0  0  0  0  0  0  0  0
   -1.2319   -3.6025    0.7172 H   0  0  0  0  0  0  0  0  0  0  0  0
    0.1648   -2.1497   -0.6861 H   0  0  0  0  0  0  0  0  0  0  0  0
   -0.4599    1.5198   -1.3378 H   0  0  0  0  0  0  0  0  0  0  0  0
   -0.1430    0.0575   -2.2810 H   0  0  0  0  0  0  0  0  0  0  0  0
    2.1132   -0.7167   -2.3096 H   0  0  0  0  0  0  0  0  0  0  0  0
    4.4024   -0.7079   -1.4017 H   0  0  0  0  0  0  0  0  0  0  0  0
    3.0851    1.6633    1.9355 H   0  0  0  0  0  0  0  0  0  0  0  0
    0.7905    1.6605    1.0398 H   0  0  0  0  0  0  0  0  0  0  0  0
  1  2  1  0
  2  3  2  0
  2  4  2  0
  2  5  1  0
  5  6  2  0
  6  7  1  0
  7  8  2  0
  8  9  1  0
  9 10  2  0
 10 11  1  0
 11 12  1  0
 12 13  1  0
 13 14  2  0
 14 15  1  0
 15 16  1  0
 15 17  2  0
 17 18  1  0
 10  5  1  0
 18 12  2  0
  6 19  1  0
  7 20  1  0
  8 21  1  0
  9 22  1  0
 11 23  1  0
 11 24  1  0
 13 25  1  0
 14 26  1  0
 17 27  1  0
 18 28  1  0
M  RAD  1   1   3
M  END
$$$$
