
     RDKit          3D

 28 29  0  0  0  0  0  0  0  0999 V2000
   -2.6154   -1.9917    2.4805 N   0  0  0  0  0  1  0  0  0  0  0  0
   -1.4038   -1.6531    1.2949 S   0  0  0  0  0  0  0  0  0  0  0  0
   -0.0946   -1.4396    1.9994 O   0  0  0  0  0  0  0  0  0  0  0  0
   -1.3039   -2.8439    0.3848 O   0  0  0  0  0  0  0  0  0  0  0  0
   -1.8316   -0.1961    0.3767 C   0  0  0  0  0  0  0  0  0  0  0  0
   -2.8653    0.6177    0.8725 C   0  0  0  0  0  0  0  0  0  0  0  0
   -3.2361    1.7872    0.2091 C   0  0  0  0  0  0  0  0  0  0  0  0
   -2.5768    2.1678   -0.9562 C   0  0  0  0  0  0  0  0  0  0  0  0
   -1.5434    1.3805   -1.4628 C   0  0  0  0  0  0  0  0  0  0  0  0
   -1.1548    0.1925   -0.8136 C   0  0  0  0  0  0  0  0  0  0  0  0
   -0.0090   -0.6011   -1.4101 C   0  0  0  0  0  0  0  0  0  0  0  0
    1.2671   -0.4450   -0.6208 C   0  0  0  0  0  0  0  0  0  0  0  0
    1.7778    0.8326   -0.3296 C   0  0  0  0  0  0  0  0  0  0  0  0
    2.9754    0.9702    0.3783 C   0  0  0  0  0  0  0  0  0  0  0  0
    3.6829   -0.1644    0.7873 C   0  0  0  0  0  0  0  0  0  0  0  0
    5.1853    0.0103    1.6754 Cl  0  0  0  0  0  0  0  0  0  0  0  0
    3.1951   -1.4384    0.4806 C   0  0  0  0  0  0  0  0  0  0  0  0
    1.9979   -1.5796   -0.2274 C   0  0  0  0  0  0  0  0  0  0  0  0
   -3.3882    0.3555    1.7821 H   0  0  0  0  0  0  0  0  0  0  0  0
   -4.0344    2.4028    0.6034 H   0  0  0  0  0  0  0  0  0  0  0  0
   -2.8635    3.0782   -1.4666 H   0  0  0  0  0  0  0  0  0  0  0  0
   -1.0399    1.7048   -2.3653 H   0  0  0  0  0  0  0  0  0  0  0  0
   -0.3010   -1.6656   -1.5047 H   0  0  0  0  0  0  0  0  0  0  0  0
    0.1953   -0.2688   -2.4512 H   0  0  0  0  0  0  0  0  0  0  0  0
    1.2496    1.7219   -0.6490 H   0  0  0  0  0  0  0  0  0  0  0  0
    3.3543    1.9587    0.6046 H   0  0  0  0  0  0  0  0  0  0  0  0
    3.7435   -2.3197    0.7880 H   0  0  0  0  0  0  0  0  0  0  0  0
    1.6376   -2.5739   -0.4602 H   0  0  0  0  0  0  0  0  0  0  0  0
  1  2  1  0
  2  3  2  0
  2  4  2  0
  2  5  1  0
  5  6  2  0
  6  7  1  0
  7  8  2  0
  8  9  1  0
  9 10  2  0
 10 11  1  0
 11 12  1  0
 12 13  1  0
 13 14  2  0
 14 15  1  0
 15 16  1  0
 15 17  2  0
 17 18  1  0
 10  5  1  0
 18 12  2  0
  6 19  1  0
  7 20  1  0
  8 21  1  0
  9 22  1  0
 11 23  1  0
 11 24  1  0
 13 25  1  0
 14 26  1  0
 17 27  1  0
 18 28  1  0
M  RAD  1   1   3
M  END
$$$$
