
     RDKit          3D

 28 29  0  0  0  0  0  0  0  0999 V2000
   -1.5614   -1.2454    2.9617 N   0  0  0  0  0  1  0  0  0  0  0  0
   -2.6780   -1.3184    1.6458 S   0  0  0  0  0  0  0  0  0  0  0  0
   -2.6856   -2.7026    1.0606 O   0  0  0  0  0  0  0  0  0  0  0  0
   -4.0535   -1.0153    2.1708 O   0  0  0  0  0  0  0  0  0  0  0  0
   -2.2223   -0.1456    0.3963 C   0  0  0  0  0  0  0  0  0  0  0  0
   -3.1228    0.8929    0.1001 C   0  0  0  0  0  0  0  0  0  0  0  0
   -2.8418    1.8178   -0.9055 C   0  0  0  0  0  0  0  0  0  0  0  0
   -1.6619    1.7163   -1.6373 C   0  0  0  0  0  0  0  0  0  0  0  0
   -0.7525    0.6969   -1.3579 C   0  0  0  0  0  0  0  0  0  0  0  0
   -1.0024   -0.2344   -0.3308 C   0  0  0  0  0  0  0  0  0  0  0  0
    0.0404   -1.3057   -0.0774 C   0  0  0  0  0  0  0  0  0  0  0  0
    1.3748   -0.6961    0.2741 C   0  0  0  0  0  0  0  0  0  0  0  0
    1.5490   -0.0346    1.5013 C   0  0  0  0  0  0  0  0  0  0  0  0
    2.7806    0.5433    1.8233 C   0  0  0  0  0  0  0  0  0  0  0  0
    3.8477    0.4678    0.9225 C   0  0  0  0  0  0  0  0  0  0  0  0
    5.3917    1.1949    1.3274 Cl  0  0  0  0  0  0  0  0  0  0  0  0
    3.6812   -0.1855   -0.3028 C   0  0  0  0  0  0  0  0  0  0  0  0
    2.4507   -0.7645   -0.6277 C   0  0  0  0  0  0  0  0  0  0  0  0
   -4.0542    0.9886    0.6423 H   0  0  0  0  0  0  0  0  0  0  0  0
   -3.5461    2.6102   -1.1237 H   0  0  0  0  0  0  0  0  0  0  0  0
   -1.4507    2.4292   -2.4240 H   0  0  0  0  0  0  0  0  0  0  0  0
    0.1570    0.6363   -1.9430 H   0  0  0  0  0  0  0  0  0  0  0  0
    0.1257   -1.9334   -0.9911 H   0  0  0  0  0  0  0  0  0  0  0  0
   -0.2397   -1.9969    0.7383 H   0  0  0  0  0  0  0  0  0  0  0  0
    0.7303    0.0391    2.2046 H   0  0  0  0  0  0  0  0  0  0  0  0
    2.9034    1.0510    2.7714 H   0  0  0  0  0  0  0  0  0  0  0  0
    4.5035   -0.2439   -1.0045 H   0  0  0  0  0  0  0  0  0  0  0  0
    2.3370   -1.2620   -1.5828 H   0  0  0  0  0  0  0  0  0  0  0  0
  1  2  1  0
  2  3  2  0
  2  4  2  0
  2  5  1  0
  5  6  2  0
  6  7  1  0
  7  8  2  0
  8  9  1  0
  9 10  2  0
 10 11  1  0
 11 12  1  0
 12 13  1  0
 13 14  2  0
 14 15  1  0
 15 16  1  0
 15 17  2  0
 17 18  1  0
 10  5  1  0
 18 12  2  0
  6 19  1  0
  7 20  1  0
  8 21  1  0
  9 22  1  0
 11 23  1  0
 11 24  1  0
 13 25  1  0
 14 26  1  0
 17 27  1  0
 18 28  1  0
M  RAD  1   1   3
M  END
$$$$
