
     RDKit          3D

 28 29  0  0  0  0  0  0  0  0999 V2000
   -1.2273   -1.0832    2.9686 N   0  0  0  0  0  1  0  0  0  0  0  0
   -2.4981   -1.1995    1.8045 S   0  0  0  0  0  0  0  0  0  0  0  0
   -2.5944   -2.6100    1.2948 O   0  0  0  0  0  0  0  0  0  0  0  0
   -3.7948   -0.8465    2.4779 O   0  0  0  0  0  0  0  0  0  0  0  0
   -2.1856   -0.0968    0.4514 C   0  0  0  0  0  0  0  0  0  0  0  0
   -3.1032    0.9423    0.2159 C   0  0  0  0  0  0  0  0  0  0  0  0
   -2.9370    1.8122   -0.8617 C   0  0  0  0  0  0  0  0  0  0  0  0
   -1.8575    1.6542   -1.7263 C   0  0  0  0  0  0  0  0  0  0  0  0
   -0.9328    0.6333   -1.5094 C   0  0  0  0  0  0  0  0  0  0  0  0
   -1.0656   -0.2427   -0.4141 C   0  0  0  0  0  0  0  0  0  0  0  0
   -0.0126   -1.3192   -0.2368 C   0  0  0  0  0  0  0  0  0  0  0  0
    1.3623   -0.7175   -0.0822 C   0  0  0  0  0  0  0  0  0  0  0  0
    2.3180   -0.8488   -1.1043 C   0  0  0  0  0  0  0  0  0  0  0  0
    3.5861   -0.2772   -0.9618 C   0  0  0  0  0  0  0  0  0  0  0  0
    3.9099    0.4314    0.1996 C   0  0  0  0  0  0  0  0  0  0  0  0
    5.5007    1.1492    0.3755 Cl  0  0  0  0  0  0  0  0  0  0  0  0
    2.9628    0.5696    1.2192 C   0  0  0  0  0  0  0  0  0  0  0  0
    1.6941   -0.0009    1.0797 C   0  0  0  0  0  0  0  0  0  0  0  0
   -3.9595    1.0809    0.8624 H   0  0  0  0  0  0  0  0  0  0  0  0
   -3.6532    2.6059   -1.0316 H   0  0  0  0  0  0  0  0  0  0  0  0
   -1.7361    2.3243   -2.5677 H   0  0  0  0  0  0  0  0  0  0  0  0
   -0.1031    0.5280   -2.1976 H   0  0  0  0  0  0  0  0  0  0  0  0
   -0.0479   -1.9917   -1.1214 H   0  0  0  0  0  0  0  0  0  0  0  0
   -0.1984   -1.9650    0.6407 H   0  0  0  0  0  0  0  0  0  0  0  0
    2.0817   -1.3897   -2.0122 H   0  0  0  0  0  0  0  0  0  0  0  0
    4.3149   -0.3843   -1.7551 H   0  0  0  0  0  0  0  0  0  0  0  0
    3.2075    1.1202    2.1186 H   0  0  0  0  0  0  0  0  0  0  0  0
    0.9691    0.1215    1.8733 H   0  0  0  0  0  0  0  0  0  0  0  0
  1  2  1  0
  2  3  2  0
  2  4  2  0
  2  5  1  0
  5  6  2  0
  6  7  1  0
  7  8  2  0
  8  9  1  0
  9 10  2  0
 10 11  1  0
 11 12  1  0
 12 13  1  0
 13 14  2  0
 14 15  1  0
 15 16  1  0
 15 17  2  0
 17 18  1  0
 10  5  1  0
 18 12  2  0
  6 19  1  0
  7 20  1  0
  8 21  1  0
  9 22  1  0
 11 23  1  0
 11 24  1  0
 13 25  1  0
 14 26  1  0
 17 27  1  0
 18 28  1  0
M  RAD  1   1   3
M  END
$$$$
