 xtb: 6.7.1 (edcfbbe)
          07312615263D

240261  0     0  0            999 V2000
    0.1482   -1.7143   -0.7472 N   0  0  0  0  0  0  0  0  0  0  0  0
   -0.1142   -1.0258    2.0063 N   0  0  0  0  0  0  0  0  0  0  0  0
   -0.4194   -0.9571   -3.0430 C   0  0  0  0  0  0  0  0  0  0  0  0
    0.0078   -1.9141   -2.0959 C   0  0  0  0  0  0  0  0  0  0  0  0
    0.4215   -3.2626   -2.4370 C   0  0  0  0  0  0  0  0  0  0  0  0
    0.4012   -3.6811   -3.4443 H   0  0  0  0  0  0  0  0  0  0  0  0
    0.8383   -3.8517   -1.2773 C   0  0  0  0  0  0  0  0  0  0  0  0
    1.2306   -4.8592   -1.1318 H   0  0  0  0  0  0  0  0  0  0  0  0
    0.6323   -2.8855   -0.2151 C   0  0  0  0  0  0  0  0  0  0  0  0
    0.8067   -3.1694    1.1536 C   0  0  0  0  0  0  0  0  0  0  0  0
    0.3883   -2.2917    2.1738 C   0  0  0  0  0  0  0  0  0  0  0  0
    0.3058   -2.6634    3.5735 C   0  0  0  0  0  0  0  0  0  0  0  0
    0.6388   -3.6199    3.9795 H   0  0  0  0  0  0  0  0  0  0  0  0
   -0.2950   -1.6255    4.2273 C   0  0  0  0  0  0  0  0  0  0  0  0
   -0.5500   -1.5407    5.2845 H   0  0  0  0  0  0  0  0  0  0  0  0
   -0.5412   -0.5947    3.2367 C   0  0  0  0  0  0  0  0  0  0  0  0
    1.3509   -4.5164    1.5508 C   0  0  0  0  0  0  0  0  0  0  0  0
    2.6892   -4.6603    1.9872 C   0  0  0  0  0  0  0  0  0  0  0  0
    3.2062   -5.9131    2.3638 C   0  0  0  0  0  0  0  0  0  0  0  0
    2.3802   -7.0390    2.2962 C   0  0  0  0  0  0  0  0  0  0  0  0
    2.7826   -8.0208    2.5788 H   0  0  0  0  0  0  0  0  0  0  0  0
    1.0529   -6.9371    1.8717 C   0  0  0  0  0  0  0  0  0  0  0  0
    0.5400   -5.6765    1.5113 C   0  0  0  0  0  0  0  0  0  0  0  0
   -0.8642    1.6479    1.2587 N   0  0  0  0  0  0  0  0  0  0  0  0
   -0.5564    0.9690   -1.4771 N   0  0  0  0  0  0  0  0  0  0  0  0
   -1.1068    0.6640    3.5304 C   0  0  0  0  0  0  0  0  0  0  0  0
   -1.1915    1.7139    2.5897 C   0  0  0  0  0  0  0  0  0  0  0  0
   -1.5727    3.0705    2.9286 C   0  0  0  0  0  0  0  0  0  0  0  0
   -1.8980    3.3917    3.9190 H   0  0  0  0  0  0  0  0  0  0  0  0
   -1.4240    3.8195    1.7944 C   0  0  0  0  0  0  0  0  0  0  0  0
   -1.6105    4.8852    1.6572 H   0  0  0  0  0  0  0  0  0  0  0  0
   -1.0164    2.9125    0.7415 C   0  0  0  0  0  0  0  0  0  0  0  0
   -0.8887    3.2739   -0.6130 C   0  0  0  0  0  0  0  0  0  0  0  0
   -0.7546    2.3176   -1.6380 C   0  0  0  0  0  0  0  0  0  0  0  0
   -0.9495    2.6164   -3.0427 C   0  0  0  0  0  0  0  0  0  0  0  0
   -1.1266    3.6150   -3.4441 H   0  0  0  0  0  0  0  0  0  0  0  0
   -0.9195    1.4253   -3.7102 C   0  0  0  0  0  0  0  0  0  0  0  0
   -1.0627    1.2377   -4.7752 H   0  0  0  0  0  0  0  0  0  0  0  0
   -0.6394    0.3992   -2.7238 C   0  0  0  0  0  0  0  0  0  0  0  0
   -0.9660    4.7236   -1.0082 C   0  0  0  0  0  0  0  0  0  0  0  0
    0.2187    5.4183   -1.3551 C   0  0  0  0  0  0  0  0  0  0  0  0
    0.1797    6.7581   -1.7821 C   0  0  0  0  0  0  0  0  0  0  0  0
   -1.0507    7.4201   -1.8354 C   0  0  0  0  0  0  0  0  0  0  0  0
   -1.0853    8.4686   -2.1595 H   0  0  0  0  0  0  0  0  0  0  0  0
   -2.2384    6.7701   -1.4870 C   0  0  0  0  0  0  0  0  0  0  0  0
   -2.1948    5.4201   -1.0906 C   0  0  0  0  0  0  0  0  0  0  0  0
   -0.2528    0.0007    0.2638 Fe  0  0  0  0  0  0  0  0  0  0  0  0
   -2.4746   -0.6380    0.2268 Cl  0  0  0  0  0  0  0  0  0  0  0  0
   -1.7015    0.8810    4.9003 C   0  0  0  0  0  0  0  0  0  0  0  0
   -0.9449    1.4304    5.9696 C   0  0  0  0  0  0  0  0  0  0  0  0
   -3.0607    0.5209    5.1198 C   0  0  0  0  0  0  0  0  0  0  0  0
   -1.5336    1.6221    7.2356 C   0  0  0  0  0  0  0  0  0  0  0  0
    0.4043    1.7852    5.7088 N   0  0  0  0  0  0  0  0  0  0  0  0
   -3.6457    0.7376    6.3860 C   0  0  0  0  0  0  0  0  0  0  0  0
   -3.7774   -0.0762    4.0558 N   0  0  0  0  0  0  0  0  0  0  0  0
   -0.9295    2.0328    8.0490 H   0  0  0  0  0  0  0  0  0  0  0  0
   -2.8764    1.2786    7.4194 C   0  0  0  0  0  0  0  0  0  0  0  0
    1.3723    2.2041    6.5933 C   0  0  0  0  0  0  0  0  0  0  0  0
    0.6834    1.6804    4.7318 H   0  0  0  0  0  0  0  0  0  0  0  0
   -4.6969    0.4760    6.5312 H   0  0  0  0  0  0  0  0  0  0  0  0
   -5.1057   -0.4538    4.0276 C   0  0  0  0  0  0  0  0  0  0  0  0
   -3.2407   -0.2534    3.2013 H   0  0  0  0  0  0  0  0  0  0  0  0
   -3.3376    1.4362    8.4030 H   0  0  0  0  0  0  0  0  0  0  0  0
    1.2183    2.3182    7.8043 O   0  0  0  0  0  0  0  0  0  0  0  0
    2.7027    2.5279    5.9459 C   0  0  0  0  0  0  0  0  0  0  0  0
   -5.9123   -0.2168    4.9217 O   0  0  0  0  0  0  0  0  0  0  0  0
   -5.5066   -1.2138    2.7860 C   0  0  0  0  0  0  0  0  0  0  0  0
    3.9562    2.1503    6.6934 C   0  0  0  0  0  0  0  0  0  0  0  0
    2.7649    2.5237    4.8524 H   0  0  0  0  0  0  0  0  0  0  0  0
    3.5337    3.5994    6.6619 C   0  0  0  0  0  0  0  0  0  0  0  0
   -6.8562   -0.9215    2.1788 C   0  0  0  0  0  0  0  0  0  0  0  0
   -4.7176   -1.5275    2.0928 H   0  0  0  0  0  0  0  0  0  0  0  0
   -6.6786   -2.1835    2.9891 C   0  0  0  0  0  0  0  0  0  0  0  0
    3.8313    1.6326    7.6476 H   0  0  0  0  0  0  0  0  0  0  0  0
    4.8245    1.8702    6.0936 H   0  0  0  0  0  0  0  0  0  0  0  0
    3.0911    4.0032    7.5759 H   0  0  0  0  0  0  0  0  0  0  0  0
    4.3145    4.5635    5.8269 C   0  0  0  0  0  0  0  0  0  0  0  0
   -7.4524   -0.1355    2.6510 H   0  0  0  0  0  0  0  0  0  0  0  0
   -6.9345   -1.0154    1.0922 H   0  0  0  0  0  0  0  0  0  0  0  0
   -7.1063   -2.1845    3.9965 H   0  0  0  0  0  0  0  0  0  0  0  0
   -6.6481   -3.5072    2.3015 C   0  0  0  0  0  0  0  0  0  0  0  0
    4.4020    5.7616    6.4280 O   0  0  0  0  0  0  0  0  0  0  0  0
    4.8223    4.2992    4.7532 O   0  0  0  0  0  0  0  0  0  0  0  0
   -7.2619   -4.4500    3.0504 O   0  0  0  0  0  0  0  0  0  0  0  0
   -6.1545   -3.7273    1.2139 O   0  0  0  0  0  0  0  0  0  0  0  0
    5.1460    6.8266    5.7645 C   0  0  0  0  0  0  0  0  0  0  0  0
   -7.3436   -5.8023    2.5190 C   0  0  0  0  0  0  0  0  0  0  0  0
    4.1687    7.6978    4.9633 C   0  0  0  0  0  0  0  0  0  0  0  0
    5.8949    7.5906    6.8553 C   0  0  0  0  0  0  0  0  0  0  0  0
    5.8532    6.3376    5.0709 H   0  0  0  0  0  0  0  0  0  0  0  0
   -7.3457   -6.7467    3.7222 C   0  0  0  0  0  0  0  0  0  0  0  0
   -8.5916   -5.9257    1.6376 C   0  0  0  0  0  0  0  0  0  0  0  0
   -6.4407   -5.9624    1.8996 H   0  0  0  0  0  0  0  0  0  0  0  0
    3.6646    7.0974    4.1885 H   0  0  0  0  0  0  0  0  0  0  0  0
    3.4098    8.1325    5.6273 H   0  0  0  0  0  0  0  0  0  0  0  0
    4.7128    8.5170    4.4733 H   0  0  0  0  0  0  0  0  0  0  0  0
    6.5679    6.9223    7.4077 H   0  0  0  0  0  0  0  0  0  0  0  0
    6.4995    8.3950    6.4154 H   0  0  0  0  0  0  0  0  0  0  0  0
    5.1956    8.0380    7.5731 H   0  0  0  0  0  0  0  0  0  0  0  0
   -6.4370   -6.6066    4.3220 H   0  0  0  0  0  0  0  0  0  0  0  0
   -8.2211   -6.5613    4.3627 H   0  0  0  0  0  0  0  0  0  0  0  0
   -7.3880   -7.7920    3.3868 H   0  0  0  0  0  0  0  0  0  0  0  0
   -8.5319   -5.2262    0.7927 H   0  0  0  0  0  0  0  0  0  0  0  0
   -8.6790   -6.9464    1.2399 H   0  0  0  0  0  0  0  0  0  0  0  0
   -9.5011   -5.7089    2.2185 H   0  0  0  0  0  0  0  0  0  0  0  0
   -0.6432   -1.4320   -4.4569 C   0  0  0  0  0  0  0  0  0  0  0  0
    0.3269   -1.2250   -5.4751 C   0  0  0  0  0  0  0  0  0  0  0  0
   -1.8409   -2.1324   -4.7689 C   0  0  0  0  0  0  0  0  0  0  0  0
    0.1337   -1.7655   -6.7622 C   0  0  0  0  0  0  0  0  0  0  0  0
    1.4627   -0.4426   -5.1479 N   0  0  0  0  0  0  0  0  0  0  0  0
   -2.0218   -2.6772   -6.0579 C   0  0  0  0  0  0  0  0  0  0  0  0
   -2.8369   -2.2144   -3.7676 N   0  0  0  0  0  0  0  0  0  0  0  0
    0.8962   -1.6002   -7.5288 H   0  0  0  0  0  0  0  0  0  0  0  0
   -1.0315   -2.4930   -7.0274 C   0  0  0  0  0  0  0  0  0  0  0  0
    2.4130    0.0961   -5.9863 C   0  0  0  0  0  0  0  0  0  0  0  0
    1.4709   -0.1110   -4.1814 H   0  0  0  0  0  0  0  0  0  0  0  0
   -2.9381   -3.2342   -6.2711 H   0  0  0  0  0  0  0  0  0  0  0  0
   -4.0636   -2.8448   -3.8231 C   0  0  0  0  0  0  0  0  0  0  0  0
   -2.6336   -1.6979   -2.9077 H   0  0  0  0  0  0  0  0  0  0  0  0
   -1.1774   -2.9208   -8.0279 H   0  0  0  0  0  0  0  0  0  0  0  0
    2.5330   -0.1652   -7.1777 O   0  0  0  0  0  0  0  0  0  0  0  0
    3.3039    1.1183   -5.3112 C   0  0  0  0  0  0  0  0  0  0  0  0
   -4.4315   -3.5688   -4.7429 O   0  0  0  0  0  0  0  0  0  0  0  0
   -4.9539   -2.5503   -2.6403 C   0  0  0  0  0  0  0  0  0  0  0  0
    3.6240    2.3641   -6.0988 C   0  0  0  0  0  0  0  0  0  0  0  0
    3.2307    1.2312   -4.2241 H   0  0  0  0  0  0  0  0  0  0  0  0
    4.6989    1.3200   -5.9032 C   0  0  0  0  0  0  0  0  0  0  0  0
   -5.8566   -3.6444   -2.1310 C   0  0  0  0  0  0  0  0  0  0  0  0
   -4.6036   -1.8241   -1.8974 H   0  0  0  0  0  0  0  0  0  0  0  0
   -6.4569   -2.5337   -2.9585 C   0  0  0  0  0  0  0  0  0  0  0  0
    3.1987    2.4370   -7.1031 H   0  0  0  0  0  0  0  0  0  0  0  0
    3.7239    3.2976   -5.5399 H   0  0  0  0  0  0  0  0  0  0  0  0
    4.9525    0.6969   -6.7649 H   0  0  0  0  0  0  0  0  0  0  0  0
    5.8123    1.6367   -4.9570 C   0  0  0  0  0  0  0  0  0  0  0  0
   -5.7831   -4.6151   -2.6284 H   0  0  0  0  0  0  0  0  0  0  0  0
   -6.0494   -3.6513   -1.0549 H   0  0  0  0  0  0  0  0  0  0  0  0
   -6.7134   -2.7737   -3.9949 H   0  0  0  0  0  0  0  0  0  0  0  0
   -7.3097   -1.4945   -2.3097 C   0  0  0  0  0  0  0  0  0  0  0  0
    6.9878    1.1783   -5.4210 O   0  0  0  0  0  0  0  0  0  0  0  0
    5.6793    2.2421   -3.9088 O   0  0  0  0  0  0  0  0  0  0  0  0
   -8.2986   -1.0971   -3.1394 O   0  0  0  0  0  0  0  0  0  0  0  0
   -7.1587   -1.0597   -1.1857 O   0  0  0  0  0  0  0  0  0  0  0  0
    8.1920    1.4218   -4.6361 C   0  0  0  0  0  0  0  0  0  0  0  0
   -9.2313   -0.0878   -2.6593 C   0  0  0  0  0  0  0  0  0  0  0  0
    9.1067    0.2143   -4.8473 C   0  0  0  0  0  0  0  0  0  0  0  0
    8.8127    2.7519   -5.0725 C   0  0  0  0  0  0  0  0  0  0  0  0
    7.8768    1.4923   -3.5772 H   0  0  0  0  0  0  0  0  0  0  0  0
   -8.6654    1.3094   -2.9441 C   0  0  0  0  0  0  0  0  0  0  0  0
  -10.5670   -0.3624   -3.3494 C   0  0  0  0  0  0  0  0  0  0  0  0
   -9.3200   -0.2259   -1.5664 H   0  0  0  0  0  0  0  0  0  0  0  0
    8.5993   -0.7085   -4.5362 H   0  0  0  0  0  0  0  0  0  0  0  0
    9.3902    0.1208   -5.9067 H   0  0  0  0  0  0  0  0  0  0  0  0
   10.0280    0.3289   -4.2602 H   0  0  0  0  0  0  0  0  0  0  0  0
    8.1121    3.5785   -4.8977 H   0  0  0  0  0  0  0  0  0  0  0  0
    9.7304    2.9514   -4.5024 H   0  0  0  0  0  0  0  0  0  0  0  0
    9.0764    2.7259   -6.1411 H   0  0  0  0  0  0  0  0  0  0  0  0
   -7.7086    1.4499   -2.4153 H   0  0  0  0  0  0  0  0  0  0  0  0
   -8.5021    1.4465   -4.0220 H   0  0  0  0  0  0  0  0  0  0  0  0
   -9.3697    2.0797   -2.6005 H   0  0  0  0  0  0  0  0  0  0  0  0
  -10.9197   -1.3790   -3.1252 H   0  0  0  0  0  0  0  0  0  0  0  0
  -11.3303    0.3488   -3.0063 H   0  0  0  0  0  0  0  0  0  0  0  0
  -10.4732   -0.2642   -4.4388 H   0  0  0  0  0  0  0  0  0  0  0  0
    4.2455   -6.0006    2.7016 H   0  0  0  0  0  0  0  0  0  0  0  0
    0.4138   -7.8259    1.8154 H   0  0  0  0  0  0  0  0  0  0  0  0
    1.1032    7.2698   -2.0767 H   0  0  0  0  0  0  0  0  0  0  0  0
   -3.1978    7.2995   -1.5250 H   0  0  0  0  0  0  0  0  0  0  0  0
    3.4342   -3.5018    2.0213 O   0  0  0  0  0  0  0  0  0  0  0  0
   -0.7445   -5.4893    1.0582 O   0  0  0  0  0  0  0  0  0  0  0  0
    1.3719    4.6655   -1.3173 O   0  0  0  0  0  0  0  0  0  0  0  0
   -3.3101    4.7118   -0.7080 O   0  0  0  0  0  0  0  0  0  0  0  0
    4.7660   -3.5384    2.4339 C   0  0  0  0  0  0  0  0  0  0  0  0
    5.7793   -3.8190    1.5068 C   0  0  0  0  0  0  0  0  0  0  0  0
    5.0798   -3.2145    3.7607 C   0  0  0  0  0  0  0  0  0  0  0  0
    7.1177   -3.7817    1.9193 C   0  0  0  0  0  0  0  0  0  0  0  0
    5.5094   -4.0584    0.4729 H   0  0  0  0  0  0  0  0  0  0  0  0
    6.4219   -3.1791    4.1613 C   0  0  0  0  0  0  0  0  0  0  0  0
    4.2660   -2.9899    4.4578 H   0  0  0  0  0  0  0  0  0  0  0  0
    7.4425   -3.4641    3.2446 C   0  0  0  0  0  0  0  0  0  0  0  0
    7.9134   -3.9999    1.1979 H   0  0  0  0  0  0  0  0  0  0  0  0
    6.6731   -2.9260    5.1975 H   0  0  0  0  0  0  0  0  0  0  0  0
    8.4932   -3.4365    3.5628 H   0  0  0  0  0  0  0  0  0  0  0  0
   -1.7179   -6.4705    1.2165 C   0  0  0  0  0  0  0  0  0  0  0  0
   -2.1105   -6.9143    2.4875 C   0  0  0  0  0  0  0  0  0  0  0  0
   -2.3587   -6.9482    0.0650 C   0  0  0  0  0  0  0  0  0  0  0  0
   -3.1377   -7.8595    2.5979 C   0  0  0  0  0  0  0  0  0  0  0  0
   -1.6123   -6.5134    3.3767 H   0  0  0  0  0  0  0  0  0  0  0  0
   -3.3906   -7.8867    0.1899 C   0  0  0  0  0  0  0  0  0  0  0  0
   -2.0415   -6.5677   -0.9113 H   0  0  0  0  0  0  0  0  0  0  0  0
   -3.7787   -8.3504    1.4532 C   0  0  0  0  0  0  0  0  0  0  0  0
   -3.4445   -8.2117    3.5890 H   0  0  0  0  0  0  0  0  0  0  0  0
   -3.8938   -8.2602   -0.7086 H   0  0  0  0  0  0  0  0  0  0  0  0
   -4.5826   -9.0924    1.5468 H   0  0  0  0  0  0  0  0  0  0  0  0
    2.6411    5.2126   -1.1977 C   0  0  0  0  0  0  0  0  0  0  0  0
    2.9417    6.2749   -0.3297 C   0  0  0  0  0  0  0  0  0  0  0  0
    3.6645    4.5813   -1.9233 C   0  0  0  0  0  0  0  0  0  0  0  0
    4.2671    6.7133   -0.2129 C   0  0  0  0  0  0  0  0  0  0  0  0
    2.1437    6.7495    0.2517 H   0  0  0  0  0  0  0  0  0  0  0  0
    4.9849    5.0214   -1.7895 C   0  0  0  0  0  0  0  0  0  0  0  0
    3.4169    3.7410   -2.5799 H   0  0  0  0  0  0  0  0  0  0  0  0
    5.2919    6.0938   -0.9403 C   0  0  0  0  0  0  0  0  0  0  0  0
    4.5009    7.5465    0.4620 H   0  0  0  0  0  0  0  0  0  0  0  0
    5.7672    4.5080   -2.3596 H   0  0  0  0  0  0  0  0  0  0  0  0
    6.3269    6.4457   -0.8399 H   0  0  0  0  0  0  0  0  0  0  0  0
   -4.5905    5.1095   -1.0753 C   0  0  0  0  0  0  0  0  0  0  0  0
   -4.9448    5.3185   -2.4160 C   0  0  0  0  0  0  0  0  0  0  0  0
   -5.5535    5.2101   -0.0608 C   0  0  0  0  0  0  0  0  0  0  0  0
   -6.2680    5.6492   -2.7334 C   0  0  0  0  0  0  0  0  0  0  0  0
   -4.1862    5.2144   -3.1988 H   0  0  0  0  0  0  0  0  0  0  0  0
   -6.8747    5.5340   -0.3930 C   0  0  0  0  0  0  0  0  0  0  0  0
   -5.2499    5.0236    0.9741 H   0  0  0  0  0  0  0  0  0  0  0  0
   -7.2358    5.7607   -1.7270 C   0  0  0  0  0  0  0  0  0  0  0  0
   -6.5478    5.8129   -3.7797 H   0  0  0  0  0  0  0  0  0  0  0  0
   -7.6285    5.6114    0.3980 H   0  0  0  0  0  0  0  0  0  0  0  0
   -8.2718    6.0188   -1.9835 H   0  0  0  0  0  0  0  0  0  0  0  0
    1.2855    0.5337    0.3479 N   0  0  0  0  0  0  0  0  0  0  0  0
    2.3883    1.2012    0.4061 C   0  0  0  0  0  0  0  0  0  0  0  0
    2.6525    2.1190    1.4651 C   0  0  0  0  0  0  0  0  0  0  0  0
    3.8565    2.7644    1.5499 C   0  0  0  0  0  0  0  0  0  0  0  0
    4.8407    2.5624    0.5820 C   0  0  0  0  0  0  0  0  0  0  0  0
    4.6094    1.7013   -0.4767 C   0  0  0  0  0  0  0  0  0  0  0  0
    3.4168    1.0112   -0.5711 C   0  0  0  0  0  0  0  0  0  0  0  0
    3.0173   -0.0944   -1.8748 S   0  0  0  0  0  0  0  0  0  0  0  0
    4.6772   -0.7839   -2.3162 C   0  0  0  0  0  0  0  0  0  0  0  0
    4.4910   -2.0465   -3.0931 C   0  0  0  0  0  0  0  0  0  0  0  0
    3.9608   -3.1729   -2.4734 C   0  0  0  0  0  0  0  0  0  0  0  0
    3.7907   -4.3461   -3.1845 C   0  0  0  0  0  0  0  0  0  0  0  0
    4.1446   -4.4069   -4.5226 C   0  0  0  0  0  0  0  0  0  0  0  0
    4.6702   -3.2886   -5.1468 C   0  0  0  0  0  0  0  0  0  0  0  0
    4.8394   -2.1132   -4.4359 C   0  0  0  0  0  0  0  0  0  0  0  0
    1.8659    2.2709    2.1877 H   0  0  0  0  0  0  0  0  0  0  0  0
    4.0527    3.4358    2.3729 H   0  0  0  0  0  0  0  0  0  0  0  0
    5.7780    3.0898    0.6493 H   0  0  0  0  0  0  0  0  0  0  0  0
    5.3578    1.5849   -1.2442 H   0  0  0  0  0  0  0  0  0  0  0  0
    5.1850   -0.9680   -1.3699 H   0  0  0  0  0  0  0  0  0  0  0  0
    5.2149   -0.0371   -2.8964 H   0  0  0  0  0  0  0  0  0  0  0  0
    3.6747   -3.1207   -1.4323 H   0  0  0  0  0  0  0  0  0  0  0  0
    3.3812   -5.2170   -2.6952 H   0  0  0  0  0  0  0  0  0  0  0  0
    4.0105   -5.3237   -5.0771 H   0  0  0  0  0  0  0  0  0  0  0  0
    4.9453   -3.3277   -6.1899 H   0  0  0  0  0  0  0  0  0  0  0  0
    5.2548   -1.2447   -4.9251 H   0  0  0  0  0  0  0  0  0  0  0  0
  1  4  4  0  0  0  0
  3  4  4  0  0  0  0
  4  5  1  0  0  0  0
  5  6  1  0  0  0  0
  5  7  2  0  0  0  0
  7  8  1  0  0  0  0
  1  9  4  0  0  0  0
  7  9  1  0  0  0  0
  9 10  4  0  0  0  0
  2 11  4  0  0  0  0
 10 11  4  0  0  0  0
 11 12  1  0  0  0  0
 12 13  1  0  0  0  0
 12 14  2  0  0  0  0
 14 15  1  0  0  0  0
  2 16  4  0  0  0  0
 14 16  1  0  0  0  0
 10 17  1  0  0  0  0
 17 18  4  0  0  0  0
 18 19  4  0  0  0  0
 19 20  4  0  0  0  0
 20 21  1  0  0  0  0
 20 22  4  0  0  0  0
 17 23  4  0  0  0  0
 22 23  4  0  0  0  0
 16 26  4  0  0  0  0
 24 27  4  0  0  0  0
 26 27  4  0  0  0  0
 27 28  1  0  0  0  0
 28 29  1  0  0  0  0
 28 30  2  0  0  0  0
 30 31  1  0  0  0  0
 24 32  4  0  0  0  0
 30 32  1  0  0  0  0
 32 33  4  0  0  0  0
 25 34  4  0  0  0  0
 33 34  4  0  0  0  0
 34 35  1  0  0  0  0
 35 36  1  0  0  0  0
 35 37  2  0  0  0  0
 37 38  1  0  0  0  0
  3 39  4  0  0  0  0
 25 39  4  0  0  0  0
 37 39  1  0  0  0  0
 33 40  1  0  0  0  0
 40 41  4  0  0  0  0
 41 42  4  0  0  0  0
 42 43  4  0  0  0  0
 43 44  1  0  0  0  0
 43 45  4  0  0  0  0
 40 46  4  0  0  0  0
 45 46  4  0  0  0  0
  1 47  1  0  0  0  0
  2 47  1  0  0  0  0
 24 47  1  0  0  0  0
 25 47  1  0  0  0  0
 47 48  1  0  0  0  0
 26 49  1  0  0  0  0
 49 50  4  0  0  0  0
 49 51  4  0  0  0  0
 50 52  4  0  0  0  0
 50 53  1  0  0  0  0
 51 54  4  0  0  0  0
 51 55  1  0  0  0  0
 52 56  1  0  0  0  0
 52 57  4  0  0  0  0
 54 57  4  0  0  0  0
 53 58  4  0  0  0  0
 53 59  1  0  0  0  0
 54 60  1  0  0  0  0
 55 61  4  0  0  0  0
 55 62  1  0  0  0  0
 57 63  1  0  0  0  0
 58 64  2  0  0  0  0
 58 65  1  0  0  0  0
 61 66  2  0  0  0  0
 61 67  1  0  0  0  0
 65 68  1  0  0  0  0
 65 69  1  0  0  0  0
 65 70  1  0  0  0  0
 68 70  1  0  0  0  0
 67 71  1  0  0  0  0
 67 72  1  0  0  0  0
 67 73  1  0  0  0  0
 71 73  1  0  0  0  0
 68 74  1  0  0  0  0
 68 75  1  0  0  0  0
 70 76  1  0  0  0  0
 70 77  1  0  0  0  0
 71 78  1  0  0  0  0
 71 79  1  0  0  0  0
 73 80  1  0  0  0  0
 73 81  1  0  0  0  0
 77 82  1  0  0  0  0
 77 83  2  0  0  0  0
 81 84  1  0  0  0  0
 81 85  2  0  0  0  0
 82 86  1  0  0  0  0
 84 87  1  0  0  0  0
 86 88  1  0  0  0  0
 86 89  1  0  0  0  0
 86 90  1  0  0  0  0
 87 91  1  0  0  0  0
 87 92  1  0  0  0  0
 87 93  1  0  0  0  0
 88 94  1  0  0  0  0
 88 95  1  0  0  0  0
 88 96  1  0  0  0  0
 89 97  1  0  0  0  0
 89 98  1  0  0  0  0
 89 99  1  0  0  0  0
 91100  1  0  0  0  0
 91101  1  0  0  0  0
 91102  1  0  0  0  0
 92103  1  0  0  0  0
 92104  1  0  0  0  0
 92105  1  0  0  0  0
  3106  1  0  0  0  0
106107  4  0  0  0  0
106108  4  0  0  0  0
107109  4  0  0  0  0
107110  1  0  0  0  0
108111  4  0  0  0  0
108112  1  0  0  0  0
109113  1  0  0  0  0
109114  4  0  0  0  0
111114  4  0  0  0  0
110115  4  0  0  0  0
110116  1  0  0  0  0
111117  1  0  0  0  0
112118  4  0  0  0  0
112119  1  0  0  0  0
114120  1  0  0  0  0
115121  2  0  0  0  0
115122  1  0  0  0  0
118123  2  0  0  0  0
118124  1  0  0  0  0
122125  1  0  0  0  0
122126  1  0  0  0  0
122127  1  0  0  0  0
125127  1  0  0  0  0
124128  1  0  0  0  0
124129  1  0  0  0  0
124130  1  0  0  0  0
128130  1  0  0  0  0
125131  1  0  0  0  0
125132  1  0  0  0  0
127133  1  0  0  0  0
127134  1  0  0  0  0
128135  1  0  0  0  0
128136  1  0  0  0  0
130137  1  0  0  0  0
130138  1  0  0  0  0
134139  1  0  0  0  0
134140  2  0  0  0  0
138141  1  0  0  0  0
138142  2  0  0  0  0
139143  1  0  0  0  0
141144  1  0  0  0  0
143145  1  0  0  0  0
143146  1  0  0  0  0
143147  1  0  0  0  0
144148  1  0  0  0  0
144149  1  0  0  0  0
144150  1  0  0  0  0
145151  1  0  0  0  0
145152  1  0  0  0  0
145153  1  0  0  0  0
146154  1  0  0  0  0
146155  1  0  0  0  0
146156  1  0  0  0  0
148157  1  0  0  0  0
148158  1  0  0  0  0
148159  1  0  0  0  0
149160  1  0  0  0  0
149161  1  0  0  0  0
149162  1  0  0  0  0
 19163  1  0  0  0  0
 22164  1  0  0  0  0
 42165  1  0  0  0  0
 45166  1  0  0  0  0
 18167  1  0  0  0  0
 23168  1  0  0  0  0
 41169  1  0  0  0  0
 46170  1  0  0  0  0
167171  1  0  0  0  0
171172  4  0  0  0  0
171173  4  0  0  0  0
172174  4  0  0  0  0
172175  1  0  0  0  0
173176  4  0  0  0  0
173177  1  0  0  0  0
174178  4  0  0  0  0
176178  4  0  0  0  0
174179  1  0  0  0  0
176180  1  0  0  0  0
178181  1  0  0  0  0
168182  1  0  0  0  0
182183  4  0  0  0  0
182184  4  0  0  0  0
183185  4  0  0  0  0
183186  1  0  0  0  0
184187  4  0  0  0  0
184188  1  0  0  0  0
185189  4  0  0  0  0
187189  4  0  0  0  0
185190  1  0  0  0  0
187191  1  0  0  0  0
189192  1  0  0  0  0
169193  1  0  0  0  0
193194  4  0  0  0  0
193195  4  0  0  0  0
194196  4  0  0  0  0
194197  1  0  0  0  0
195198  4  0  0  0  0
195199  1  0  0  0  0
196200  4  0  0  0  0
198200  4  0  0  0  0
196201  1  0  0  0  0
198202  1  0  0  0  0
200203  1  0  0  0  0
170204  1  0  0  0  0
204205  4  0  0  0  0
204206  4  0  0  0  0
205207  4  0  0  0  0
205208  1  0  0  0  0
206209  4  0  0  0  0
206210  1  0  0  0  0
207211  4  0  0  0  0
209211  4  0  0  0  0
207212  1  0  0  0  0
209213  1  0  0  0  0
211214  1  0  0  0  0
 47215  2  0  0  0  0
215216  4  0  0  0  0
216217  1  0  0  0  0
217218  2  0  0  0  0
218219  4  0  0  0  0
219220  4  0  0  0  0
216221  1  0  0  0  0
220221  4  0  0  0  0
221222  1  0  0  0  0
222223  1  0  0  0  0
223224  1  0  0  0  0
224225  4  0  0  0  0
225226  4  0  0  0  0
226227  4  0  0  0  0
227228  4  0  0  0  0
224229  4  0  0  0  0
228229  4  0  0  0  0
217230  1  0  0  0  0
218231  1  0  0  0  0
219232  1  0  0  0  0
220233  1  0  0  0  0
223234  1  0  0  0  0
223235  1  0  0  0  0
225236  1  0  0  0  0
226237  1  0  0  0  0
227238  1  0  0  0  0
228239  1  0  0  0  0
229240  1  0  0  0  0
M  END
