
     RDKit          3D

 28 29  0  0  0  0  0  0  0  0999 V2000
   -2.2161    1.3902    1.5718 N   0  0  0  0  0  1  0  0  0  0  0  0
   -2.7162    0.4382    0.6352 C   0  0  0  0  0  0  0  0  0  0  0  0
   -4.0827    0.4341    0.3298 C   0  0  0  0  0  0  0  0  0  0  0  0
   -4.5947   -0.4782   -0.5958 C   0  0  0  0  0  0  0  0  0  0  0  0
   -3.7430   -1.3884   -1.2248 C   0  0  0  0  0  0  0  0  0  0  0  0
   -2.3777   -1.3922   -0.9263 C   0  0  0  0  0  0  0  0  0  0  0  0
   -1.8520   -0.4894    0.0146 C   0  0  0  0  0  0  0  0  0  0  0  0
   -0.3696   -0.4899    0.2966 C   0  0  0  0  0  0  0  0  0  0  0  0
    0.3541    0.5018   -0.6192 C   0  0  0  0  0  0  0  0  0  0  0  0
    1.8319    0.5033   -0.3346 C   0  0  0  0  0  0  0  0  0  0  0  0
    2.3636    1.3581    0.6454 C   0  0  0  0  0  0  0  0  0  0  0  0
    3.7321    1.3352    0.9321 C   0  0  0  0  0  0  0  0  0  0  0  0
    4.5760    0.4535    0.2511 C   0  0  0  0  0  0  0  0  0  0  0  0
    4.0524   -0.4102   -0.7155 C   0  0  0  0  0  0  0  0  0  0  0  0
    4.8708   -1.2709   -1.3694 F   0  0  0  0  0  0  0  0  0  0  0  0
    2.6840   -0.3902   -1.0051 C   0  0  0  0  0  0  0  0  0  0  0  0
   -4.7488    1.1418    0.8074 H   0  0  0  0  0  0  0  0  0  0  0  0
   -5.6515   -0.4762   -0.8295 H   0  0  0  0  0  0  0  0  0  0  0  0
   -4.1403   -2.0898   -1.9471 H   0  0  0  0  0  0  0  0  0  0  0  0
   -1.7294   -2.0985   -1.4302 H   0  0  0  0  0  0  0  0  0  0  0  0
    0.0442   -1.5107    0.1390 H   0  0  0  0  0  0  0  0  0  0  0  0
   -0.1832   -0.2283    1.3611 H   0  0  0  0  0  0  0  0  0  0  0  0
   -0.0581    1.5239   -0.4682 H   0  0  0  0  0  0  0  0  0  0  0  0
    0.1757    0.2279   -1.6827 H   0  0  0  0  0  0  0  0  0  0  0  0
    1.7189    2.0393    1.1869 H   0  0  0  0  0  0  0  0  0  0  0  0
    4.1377    1.9986    1.6850 H   0  0  0  0  0  0  0  0  0  0  0  0
    5.6346    0.4373    0.4762 H   0  0  0  0  0  0  0  0  0  0  0  0
    2.2874   -1.0702   -1.7491 H   0  0  0  0  0  0  0  0  0  0  0  0
  1  2  1  0
  2  3  2  0
  3  4  1  0
  4  5  2  0
  5  6  1  0
  6  7  2  0
  7  8  1  0
  8  9  1  0
  9 10  1  0
 10 11  2  0
 11 12  1  0
 12 13  2  0
 13 14  1  0
 14 15  1  0
 14 16  2  0
  7  2  1  0
 16 10  1  0
  3 17  1  0
  4 18  1  0
  5 19  1  0
  6 20  1  0
  8 21  1  0
  8 22  1  0
  9 23  1  0
  9 24  1  0
 11 25  1  0
 12 26  1  0
 13 27  1  0
 16 28  1  0
M  RAD  1   1   3
M  END
$$$$
