
     RDKit          3D

 28 29  0  0  0  0  0  0  0  0999 V2000
    2.3183   -2.4462    1.2081 N   0  0  0  0  0  1  0  0  0  0  0  0
    2.2855   -1.0662    0.8508 C   0  0  0  0  0  0  0  0  0  0  0  0
    2.9953   -0.1428    1.6278 C   0  0  0  0  0  0  0  0  0  0  0  0
    2.9700    1.2161    1.3050 C   0  0  0  0  0  0  0  0  0  0  0  0
    2.2344    1.6596    0.2045 C   0  0  0  0  0  0  0  0  0  0  0  0
    1.5245    0.7454   -0.5780 C   0  0  0  0  0  0  0  0  0  0  0  0
    1.5467   -0.6262   -0.2682 C   0  0  0  0  0  0  0  0  0  0  0  0
    0.7326   -1.5911   -1.0996 C   0  0  0  0  0  0  0  0  0  0  0  0
   -0.6229   -1.9038   -0.4499 C   0  0  0  0  0  0  0  0  0  0  0  0
   -1.4968   -0.6785   -0.3612 C   0  0  0  0  0  0  0  0  0  0  0  0
   -1.5552    0.0678    0.8282 C   0  0  0  0  0  0  0  0  0  0  0  0
   -2.3303    1.2295    0.8930 C   0  0  0  0  0  0  0  0  0  0  0  0
   -3.0477    1.6566   -0.2277 C   0  0  0  0  0  0  0  0  0  0  0  0
   -2.9889    0.9241   -1.4169 C   0  0  0  0  0  0  0  0  0  0  0  0
   -3.6796    1.3435   -2.5056 F   0  0  0  0  0  0  0  0  0  0  0  0
   -2.2135   -0.2380   -1.4862 C   0  0  0  0  0  0  0  0  0  0  0  0
    3.5646   -0.4778    2.4858 H   0  0  0  0  0  0  0  0  0  0  0  0
    3.5183    1.9261    1.9105 H   0  0  0  0  0  0  0  0  0  0  0  0
    2.2107    2.7136   -0.0404 H   0  0  0  0  0  0  0  0  0  0  0  0
    0.9484    1.1082   -1.4205 H   0  0  0  0  0  0  0  0  0  0  0  0
    1.2979   -2.5389   -1.2305 H   0  0  0  0  0  0  0  0  0  0  0  0
    0.5702   -1.1821   -2.1213 H   0  0  0  0  0  0  0  0  0  0  0  0
   -0.4658   -2.3428    0.5596 H   0  0  0  0  0  0  0  0  0  0  0  0
   -1.1404   -2.6784   -1.0567 H   0  0  0  0  0  0  0  0  0  0  0  0
   -0.9935   -0.2442    1.7000 H   0  0  0  0  0  0  0  0  0  0  0  0
   -2.3712    1.8013    1.8111 H   0  0  0  0  0  0  0  0  0  0  0  0
   -3.6456    2.5573   -0.1747 H   0  0  0  0  0  0  0  0  0  0  0  0
   -2.1659   -0.7921   -2.4155 H   0  0  0  0  0  0  0  0  0  0  0  0
  1  2  1  0
  2  3  2  0
  3  4  1  0
  4  5  2  0
  5  6  1  0
  6  7  2  0
  7  8  1  0
  8  9  1  0
  9 10  1  0
 10 11  2  0
 11 12  1  0
 12 13  2  0
 13 14  1  0
 14 15  1  0
 14 16  2  0
  7  2  1  0
 16 10  1  0
  3 17  1  0
  4 18  1  0
  5 19  1  0
  6 20  1  0
  8 21  1  0
  8 22  1  0
  9 23  1  0
  9 24  1  0
 11 25  1  0
 12 26  1  0
 13 27  1  0
 16 28  1  0
M  RAD  1   1   3
M  END
$$$$
