
     RDKit          3D

 28 29  0  0  0  0  0  0  0  0999 V2000
   -2.0856    1.4476    1.9834 N   0  0  0  0  0  1  0  0  0  0  0  0
   -2.6667    0.5968    0.9975 C   0  0  0  0  0  0  0  0  0  0  0  0
   -4.0091    0.2203    1.1264 C   0  0  0  0  0  0  0  0  0  0  0  0
   -4.5973   -0.6246    0.1822 C   0  0  0  0  0  0  0  0  0  0  0  0
   -3.8456   -1.1017   -0.8934 C   0  0  0  0  0  0  0  0  0  0  0  0
   -2.5051   -0.7313   -1.0306 C   0  0  0  0  0  0  0  0  0  0  0  0
   -1.9052    0.1305   -0.0958 C   0  0  0  0  0  0  0  0  0  0  0  0
   -0.4475    0.4905   -0.2462 C   0  0  0  0  0  0  0  0  0  0  0  0
    0.4335   -0.4893    0.5346 C   0  0  0  0  0  0  0  0  0  0  0  0
    1.8868   -0.1271    0.3871 C   0  0  0  0  0  0  0  0  0  0  0  0
    2.4850    0.7792    1.2785 C   0  0  0  0  0  0  0  0  0  0  0  0
    3.8266    1.1402    1.1206 C   0  0  0  0  0  0  0  0  0  0  0  0
    4.5764    0.6078    0.0681 C   0  0  0  0  0  0  0  0  0  0  0  0
    3.9845   -0.2837   -0.8315 C   0  0  0  0  0  0  0  0  0  0  0  0
    4.7105   -0.7929   -1.8572 F   0  0  0  0  0  0  0  0  0  0  0  0
    2.6426   -0.6473   -0.6769 C   0  0  0  0  0  0  0  0  0  0  0  0
   -4.5969    0.5797    1.9618 H   0  0  0  0  0  0  0  0  0  0  0  0
   -5.6350   -0.9138    0.2872 H   0  0  0  0  0  0  0  0  0  0  0  0
   -4.3011   -1.7621   -1.6200 H   0  0  0  0  0  0  0  0  0  0  0  0
   -1.9336   -1.1179   -1.8655 H   0  0  0  0  0  0  0  0  0  0  0  0
   -0.1627    0.4699   -1.3216 H   0  0  0  0  0  0  0  0  0  0  0  0
   -0.2712    1.5279    0.1131 H   0  0  0  0  0  0  0  0  0  0  0  0
    0.1507   -0.4752    1.6104 H   0  0  0  0  0  0  0  0  0  0  0  0
    0.2636   -1.5238    0.1624 H   0  0  0  0  0  0  0  0  0  0  0  0
    1.9124    1.2061    2.0927 H   0  0  0  0  0  0  0  0  0  0  0  0
    4.2843    1.8355    1.8124 H   0  0  0  0  0  0  0  0  0  0  0  0
    5.6143    0.8903   -0.0522 H   0  0  0  0  0  0  0  0  0  0  0  0
    2.1915   -1.3315   -1.3851 H   0  0  0  0  0  0  0  0  0  0  0  0
  1  2  1  0
  2  3  2  0
  3  4  1  0
  4  5  2  0
  5  6  1  0
  6  7  2  0
  7  8  1  0
  8  9  1  0
  9 10  1  0
 10 11  2  0
 11 12  1  0
 12 13  2  0
 13 14  1  0
 14 15  1  0
 14 16  2  0
  7  2  1  0
 16 10  1  0
  3 17  1  0
  4 18  1  0
  5 19  1  0
  6 20  1  0
  8 21  1  0
  8 22  1  0
  9 23  1  0
  9 24  1  0
 11 25  1  0
 12 26  1  0
 13 27  1  0
 16 28  1  0
M  RAD  1   1   3
M  END
$$$$
