
     RDKit          3D

 28 29  0  0  0  0  0  0  0  0999 V2000
   -2.4328    2.3280   -1.3445 N   0  0  0  0  0  1  0  0  0  0  0  0
   -2.3664    1.0041   -0.8190 C   0  0  0  0  0  0  0  0  0  0  0  0
   -3.1779    0.0076   -1.3744 C   0  0  0  0  0  0  0  0  0  0  0  0
   -3.1230   -1.2995   -0.8847 C   0  0  0  0  0  0  0  0  0  0  0  0
   -2.2561   -1.6179    0.1623 C   0  0  0  0  0  0  0  0  0  0  0  0
   -1.4439   -0.6298    0.7243 C   0  0  0  0  0  0  0  0  0  0  0  0
   -1.4938    0.6915    0.2452 C   0  0  0  0  0  0  0  0  0  0  0  0
   -0.5711    1.7333    0.8352 C   0  0  0  0  0  0  0  0  0  0  0  0
    0.6921    1.9268   -0.0159 C   0  0  0  0  0  0  0  0  0  0  0  0
    1.5366    0.6786   -0.0555 C   0  0  0  0  0  0  0  0  0  0  0  0
    2.3918    0.3691    1.0149 C   0  0  0  0  0  0  0  0  0  0  0  0
    3.1411   -0.8113    0.9990 C   0  0  0  0  0  0  0  0  0  0  0  0
    3.0363   -1.6933   -0.0801 C   0  0  0  0  0  0  0  0  0  0  0  0
    2.1805   -1.3973   -1.1451 C   0  0  0  0  0  0  0  0  0  0  0  0
    2.0727   -2.2581   -2.1869 F   0  0  0  0  0  0  0  0  0  0  0  0
    1.4310   -0.2167   -1.1337 C   0  0  0  0  0  0  0  0  0  0  0  0
   -3.8497    0.2451   -2.1898 H   0  0  0  0  0  0  0  0  0  0  0  0
   -3.7505   -2.0668   -1.3194 H   0  0  0  0  0  0  0  0  0  0  0  0
   -2.2101   -2.6325    0.5362 H   0  0  0  0  0  0  0  0  0  0  0  0
   -0.7675   -0.8970    1.5270 H   0  0  0  0  0  0  0  0  0  0  0  0
   -1.1066    2.7039    0.9132 H   0  0  0  0  0  0  0  0  0  0  0  0
   -0.2818    1.4533    1.8722 H   0  0  0  0  0  0  0  0  0  0  0  0
    1.2900    2.7592    0.4151 H   0  0  0  0  0  0  0  0  0  0  0  0
    0.4100    2.2377   -1.0456 H   0  0  0  0  0  0  0  0  0  0  0  0
    2.4731    1.0389    1.8620 H   0  0  0  0  0  0  0  0  0  0  0  0
    3.7997   -1.0446    1.8255 H   0  0  0  0  0  0  0  0  0  0  0  0
    3.6154   -2.6077   -0.0881 H   0  0  0  0  0  0  0  0  0  0  0  0
    0.7611   -0.0046   -1.9580 H   0  0  0  0  0  0  0  0  0  0  0  0
  1  2  1  0
  2  3  2  0
  3  4  1  0
  4  5  2  0
  5  6  1  0
  6  7  2  0
  7  8  1  0
  8  9  1  0
  9 10  1  0
 10 11  2  0
 11 12  1  0
 12 13  2  0
 13 14  1  0
 14 15  1  0
 14 16  2  0
  7  2  1  0
 16 10  1  0
  3 17  1  0
  4 18  1  0
  5 19  1  0
  6 20  1  0
  8 21  1  0
  8 22  1  0
  9 23  1  0
  9 24  1  0
 11 25  1  0
 12 26  1  0
 13 27  1  0
 16 28  1  0
M  RAD  1   1   3
M  END
$$$$
