
     RDKit          3D

 28 29  0  0  0  0  0  0  0  0999 V2000
   -1.6396    1.8010    1.9864 N   0  0  0  0  0  1  0  0  0  0  0  0
   -2.4411    0.9693    1.1500 C   0  0  0  0  0  0  0  0  0  0  0  0
   -3.8101    1.2381    1.0309 C   0  0  0  0  0  0  0  0  0  0  0  0
   -4.6138    0.4475    0.2060 C   0  0  0  0  0  0  0  0  0  0  0  0
   -4.0527   -0.6131   -0.5079 C   0  0  0  0  0  0  0  0  0  0  0  0
   -2.6874   -0.8893   -0.3953 C   0  0  0  0  0  0  0  0  0  0  0  0
   -1.8703   -0.1109    0.4431 C   0  0  0  0  0  0  0  0  0  0  0  0
   -0.3929   -0.4072    0.5236 C   0  0  0  0  0  0  0  0  0  0  0  0
    0.3806    0.4219   -0.5061 C   0  0  0  0  0  0  0  0  0  0  0  0
    1.8543    0.1285   -0.4224 C   0  0  0  0  0  0  0  0  0  0  0  0
    2.6732    0.8587    0.4551 C   0  0  0  0  0  0  0  0  0  0  0  0
    4.0362    0.5631    0.5562 C   0  0  0  0  0  0  0  0  0  0  0  0
    4.5883   -0.4679   -0.2091 C   0  0  0  0  0  0  0  0  0  0  0  0
    3.7772   -1.2085   -1.0742 C   0  0  0  0  0  0  0  0  0  0  0  0
    4.3123   -2.2139   -1.8097 F   0  0  0  0  0  0  0  0  0  0  0  0
    2.4134   -0.9158   -1.1781 C   0  0  0  0  0  0  0  0  0  0  0  0
   -4.2517    2.0635    1.5752 H   0  0  0  0  0  0  0  0  0  0  0  0
   -5.6712    0.6604    0.1163 H   0  0  0  0  0  0  0  0  0  0  0  0
   -4.6756   -1.2201   -1.1522 H   0  0  0  0  0  0  0  0  0  0  0  0
   -2.2664   -1.7098   -0.9633 H   0  0  0  0  0  0  0  0  0  0  0  0
   -0.2144   -1.4897    0.3382 H   0  0  0  0  0  0  0  0  0  0  0  0
   -0.0148   -0.1897    1.5464 H   0  0  0  0  0  0  0  0  0  0  0  0
    0.0081    0.1907   -1.5287 H   0  0  0  0  0  0  0  0  0  0  0  0
    0.2030    1.5054   -0.3275 H   0  0  0  0  0  0  0  0  0  0  0  0
    2.2558    1.6538    1.0606 H   0  0  0  0  0  0  0  0  0  0  0  0
    4.6639    1.1311    1.2305 H   0  0  0  0  0  0  0  0  0  0  0  0
    5.6434   -0.6952   -0.1276 H   0  0  0  0  0  0  0  0  0  0  0  0
    1.7924   -1.5020   -1.8444 H   0  0  0  0  0  0  0  0  0  0  0  0
  1  2  1  0
  2  3  2  0
  3  4  1  0
  4  5  2  0
  5  6  1  0
  6  7  2  0
  7  8  1  0
  8  9  1  0
  9 10  1  0
 10 11  2  0
 11 12  1  0
 12 13  2  0
 13 14  1  0
 14 15  1  0
 14 16  2  0
  7  2  1  0
 16 10  1  0
  3 17  1  0
  4 18  1  0
  5 19  1  0
  6 20  1  0
  8 21  1  0
  8 22  1  0
  9 23  1  0
  9 24  1  0
 11 25  1  0
 12 26  1  0
 13 27  1  0
 16 28  1  0
M  RAD  1   1   3
M  END
$$$$
