
     RDKit          3D

 28 29  0  0  0  0  0  0  0  0999 V2000
   -2.2739    1.3102    2.5878 N   0  0  0  0  0  1  0  0  0  0  0  0
   -2.2656    0.9073    1.2199 C   0  0  0  0  0  0  0  0  0  0  0  0
   -2.9985    1.6488    0.2854 C   0  0  0  0  0  0  0  0  0  0  0  0
   -2.9974    1.2812   -1.0622 C   0  0  0  0  0  0  0  0  0  0  0  0
   -2.2630    0.1711   -1.4834 C   0  0  0  0  0  0  0  0  0  0  0  0
   -1.5301   -0.5762   -0.5580 C   0  0  0  0  0  0  0  0  0  0  0  0
   -1.5277   -0.2210    0.8028 C   0  0  0  0  0  0  0  0  0  0  0  0
   -0.6888   -1.0144    1.7784 C   0  0  0  0  0  0  0  0  0  0  0  0
    0.6678   -0.3455    2.0426 C   0  0  0  0  0  0  0  0  0  0  0  0
    1.5168   -0.2917    0.7980 C   0  0  0  0  0  0  0  0  0  0  0  0
    2.2367   -1.4245    0.3835 C   0  0  0  0  0  0  0  0  0  0  0  0
    2.9880   -1.3889   -0.7951 C   0  0  0  0  0  0  0  0  0  0  0  0
    3.0198   -0.2269   -1.5711 C   0  0  0  0  0  0  0  0  0  0  0  0
    2.2988    0.9018   -1.1705 C   0  0  0  0  0  0  0  0  0  0  0  0
    2.3229    2.0254   -1.9289 F   0  0  0  0  0  0  0  0  0  0  0  0
    1.5477    0.8708    0.0087 C   0  0  0  0  0  0  0  0  0  0  0  0
   -3.5671    2.5139    0.6030 H   0  0  0  0  0  0  0  0  0  0  0  0
   -3.5635    1.8594   -1.7810 H   0  0  0  0  0  0  0  0  0  0  0  0
   -2.2580   -0.1085   -2.5290 H   0  0  0  0  0  0  0  0  0  0  0  0
   -0.9553   -1.4265   -0.9040 H   0  0  0  0  0  0  0  0  0  0  0  0
   -1.2345   -1.1176    2.7410 H   0  0  0  0  0  0  0  0  0  0  0  0
   -0.5267   -2.0479    1.4003 H   0  0  0  0  0  0  0  0  0  0  0  0
    1.2046   -0.9225    2.8267 H   0  0  0  0  0  0  0  0  0  0  0  0
    0.5118    0.6771    2.4507 H   0  0  0  0  0  0  0  0  0  0  0  0
    2.2109   -2.3344    0.9702 H   0  0  0  0  0  0  0  0  0  0  0  0
    3.5420   -2.2639   -1.1095 H   0  0  0  0  0  0  0  0  0  0  0  0
    3.6000   -0.2035   -2.4845 H   0  0  0  0  0  0  0  0  0  0  0  0
    0.9823    1.7468    0.3019 H   0  0  0  0  0  0  0  0  0  0  0  0
  1  2  1  0
  2  3  2  0
  3  4  1  0
  4  5  2  0
  5  6  1  0
  6  7  2  0
  7  8  1  0
  8  9  1  0
  9 10  1  0
 10 11  2  0
 11 12  1  0
 12 13  2  0
 13 14  1  0
 14 15  1  0
 14 16  2  0
  7  2  1  0
 16 10  1  0
  3 17  1  0
  4 18  1  0
  5 19  1  0
  6 20  1  0
  8 21  1  0
  8 22  1  0
  9 23  1  0
  9 24  1  0
 11 25  1  0
 12 26  1  0
 13 27  1  0
 16 28  1  0
M  RAD  1   1   3
M  END
$$$$
