
     RDKit          3D

 28 29  0  0  0  0  0  0  0  0999 V2000
    1.3237   -2.3989    2.3248 N   0  0  0  0  0  1  0  0  0  0  0  0
    1.7321   -1.2261    1.6241 C   0  0  0  0  0  0  0  0  0  0  0  0
    2.5481   -0.2920    2.2737 C   0  0  0  0  0  0  0  0  0  0  0  0
    2.9524    0.8702    1.6126 C   0  0  0  0  0  0  0  0  0  0  0  0
    2.5426    1.1057    0.2989 C   0  0  0  0  0  0  0  0  0  0  0  0
    1.7300    0.1785   -0.3583 C   0  0  0  0  0  0  0  0  0  0  0  0
    1.3210   -0.9988    0.2933 C   0  0  0  0  0  0  0  0  0  0  0  0
    0.4021   -1.9643   -0.4197 C   0  0  0  0  0  0  0  0  0  0  0  0
   -1.0676   -1.7485   -0.0312 C   0  0  0  0  0  0  0  0  0  0  0  0
   -1.5665   -0.3923   -0.4606 C   0  0  0  0  0  0  0  0  0  0  0  0
   -1.9604   -0.1724   -1.7909 C   0  0  0  0  0  0  0  0  0  0  0  0
   -2.3802    1.0969   -2.2003 C   0  0  0  0  0  0  0  0  0  0  0  0
   -2.4023    2.1557   -1.2882 C   0  0  0  0  0  0  0  0  0  0  0  0
   -2.0031    1.9475    0.0352 C   0  0  0  0  0  0  0  0  0  0  0  0
   -2.0161    2.9775    0.9167 F   0  0  0  0  0  0  0  0  0  0  0  0
   -1.5845    0.6789    0.4490 C   0  0  0  0  0  0  0  0  0  0  0  0
    2.8665   -0.4647    3.2941 H   0  0  0  0  0  0  0  0  0  0  0  0
    3.5809    1.5904    2.1202 H   0  0  0  0  0  0  0  0  0  0  0  0
    2.8515    2.0098   -0.2097 H   0  0  0  0  0  0  0  0  0  0  0  0
    1.4105    0.3833   -1.3728 H   0  0  0  0  0  0  0  0  0  0  0  0
    0.5140   -1.8647   -1.5220 H   0  0  0  0  0  0  0  0  0  0  0  0
    0.6924   -3.0077   -0.1709 H   0  0  0  0  0  0  0  0  0  0  0  0
   -1.6852   -2.5356   -0.5159 H   0  0  0  0  0  0  0  0  0  0  0  0
   -1.1912   -1.8780    1.0664 H   0  0  0  0  0  0  0  0  0  0  0  0
   -1.9369   -0.9820   -2.5098 H   0  0  0  0  0  0  0  0  0  0  0  0
   -2.6840    1.2610   -3.2260 H   0  0  0  0  0  0  0  0  0  0  0  0
   -2.7250    3.1378   -1.6090 H   0  0  0  0  0  0  0  0  0  0  0  0
   -1.2645    0.5328    1.4734 H   0  0  0  0  0  0  0  0  0  0  0  0
  1  2  1  0
  2  3  2  0
  3  4  1  0
  4  5  2  0
  5  6  1  0
  6  7  2  0
  7  8  1  0
  8  9  1  0
  9 10  1  0
 10 11  2  0
 11 12  1  0
 12 13  2  0
 13 14  1  0
 14 15  1  0
 14 16  2  0
  7  2  1  0
 16 10  1  0
  3 17  1  0
  4 18  1  0
  5 19  1  0
  6 20  1  0
  8 21  1  0
  8 22  1  0
  9 23  1  0
  9 24  1  0
 11 25  1  0
 12 26  1  0
 13 27  1  0
 16 28  1  0
M  RAD  1   1   3
M  END
$$$$
