
     RDKit          3D

 28 29  0  0  0  0  0  0  0  0999 V2000
    2.7695   -2.1909   -0.6521 N   0  0  0  0  0  1  0  0  0  0  0  0
    2.5170   -0.8768   -0.1595 C   0  0  0  0  0  0  0  0  0  0  0  0
    3.3818    0.1644   -0.5178 C   0  0  0  0  0  0  0  0  0  0  0  0
    3.1496    1.4626   -0.0574 C   0  0  0  0  0  0  0  0  0  0  0  0
    2.0514    1.7275    0.7628 C   0  0  0  0  0  0  0  0  0  0  0  0
    1.1840    0.6947    1.1274 C   0  0  0  0  0  0  0  0  0  0  0  0
    1.4097   -0.6181    0.6762 C   0  0  0  0  0  0  0  0  0  0  0  0
    0.4313   -1.7104    1.0429 C   0  0  0  0  0  0  0  0  0  0  0  0
   -0.5927   -1.9600   -0.0737 C   0  0  0  0  0  0  0  0  0  0  0  0
   -1.4686   -0.7557   -0.3090 C   0  0  0  0  0  0  0  0  0  0  0  0
   -2.5603   -0.4993    0.5369 C   0  0  0  0  0  0  0  0  0  0  0  0
   -3.3455    0.6418    0.3467 C   0  0  0  0  0  0  0  0  0  0  0  0
   -3.0425    1.5375   -0.6825 C   0  0  0  0  0  0  0  0  0  0  0  0
   -1.9522    1.2944   -1.5230 C   0  0  0  0  0  0  0  0  0  0  0  0
   -1.6536    2.1687   -2.5152 F   0  0  0  0  0  0  0  0  0  0  0  0
   -1.1656    0.1532   -1.3372 C   0  0  0  0  0  0  0  0  0  0  0  0
    4.2332   -0.0316   -1.1574 H   0  0  0  0  0  0  0  0  0  0  0  0
    3.8196    2.2644   -0.3395 H   0  0  0  0  0  0  0  0  0  0  0  0
    1.8694    2.7352    1.1134 H   0  0  0  0  0  0  0  0  0  0  0  0
    0.3295    0.9203    1.7535 H   0  0  0  0  0  0  0  0  0  0  0  0
    0.9838   -2.6534    1.2441 H   0  0  0  0  0  0  0  0  0  0  0  0
   -0.1011   -1.4546    1.9855 H   0  0  0  0  0  0  0  0  0  0  0  0
   -0.0674   -2.2471   -1.0108 H   0  0  0  0  0  0  0  0  0  0  0  0
   -1.2297   -2.8253    0.2118 H   0  0  0  0  0  0  0  0  0  0  0  0
   -2.7984   -1.1798    1.3450 H   0  0  0  0  0  0  0  0  0  0  0  0
   -4.1865    0.8343    1.0002 H   0  0  0  0  0  0  0  0  0  0  0  0
   -3.6506    2.4214   -0.8254 H   0  0  0  0  0  0  0  0  0  0  0  0
   -0.3152   -0.0175   -1.9860 H   0  0  0  0  0  0  0  0  0  0  0  0
  1  2  1  0
  2  3  2  0
  3  4  1  0
  4  5  2  0
  5  6  1  0
  6  7  2  0
  7  8  1  0
  8  9  1  0
  9 10  1  0
 10 11  2  0
 11 12  1  0
 12 13  2  0
 13 14  1  0
 14 15  1  0
 14 16  2  0
  7  2  1  0
 16 10  1  0
  3 17  1  0
  4 18  1  0
  5 19  1  0
  6 20  1  0
  8 21  1  0
  8 22  1  0
  9 23  1  0
  9 24  1  0
 11 25  1  0
 12 26  1  0
 13 27  1  0
 16 28  1  0
M  RAD  1   1   3
M  END
$$$$
