
     RDKit          3D

 28 29  0  0  0  0  0  0  0  0999 V2000
    2.9845    1.3309    1.4121 N   0  0  0  0  0  1  0  0  0  0  0  0
    2.5956    0.3886    0.4150 C   0  0  0  0  0  0  0  0  0  0  0  0
    3.3068   -0.8114    0.2953 C   0  0  0  0  0  0  0  0  0  0  0  0
    2.9383   -1.7555   -0.6660 C   0  0  0  0  0  0  0  0  0  0  0  0
    1.8564   -1.5059   -1.5123 C   0  0  0  0  0  0  0  0  0  0  0  0
    1.1418   -0.3104   -1.4018 C   0  0  0  0  0  0  0  0  0  0  0  0
    1.5061    0.6515   -0.4427 C   0  0  0  0  0  0  0  0  0  0  0  0
    0.6889    1.9160   -0.3080 C   0  0  0  0  0  0  0  0  0  0  0  0
   -0.3487    1.8096    0.8187 C   0  0  0  0  0  0  0  0  0  0  0  0
   -1.3770    0.7447    0.5336 C   0  0  0  0  0  0  0  0  0  0  0  0
   -2.4502    1.0118   -0.3324 C   0  0  0  0  0  0  0  0  0  0  0  0
   -3.3787    0.0104   -0.6327 C   0  0  0  0  0  0  0  0  0  0  0  0
   -3.2384   -1.2646   -0.0777 C   0  0  0  0  0  0  0  0  0  0  0  0
   -2.1681   -1.5413    0.7777 C   0  0  0  0  0  0  0  0  0  0  0  0
   -2.0277   -2.7811    1.3081 F   0  0  0  0  0  0  0  0  0  0  0  0
   -1.2384   -0.5419    1.0820 C   0  0  0  0  0  0  0  0  0  0  0  0
    4.1443   -1.0149    0.9508 H   0  0  0  0  0  0  0  0  0  0  0  0
    3.4898   -2.6828   -0.7527 H   0  0  0  0  0  0  0  0  0  0  0  0
    1.5682   -2.2413   -2.2523 H   0  0  0  0  0  0  0  0  0  0  0  0
    0.2970   -0.1387   -2.0575 H   0  0  0  0  0  0  0  0  0  0  0  0
    0.1748    2.1501   -1.2664 H   0  0  0  0  0  0  0  0  0  0  0  0
    1.3628    2.7746   -0.0990 H   0  0  0  0  0  0  0  0  0  0  0  0
    0.1625    1.6069    1.7852 H   0  0  0  0  0  0  0  0  0  0  0  0
   -0.8595    2.7909    0.9287 H   0  0  0  0  0  0  0  0  0  0  0  0
   -2.5634    1.9925   -0.7777 H   0  0  0  0  0  0  0  0  0  0  0  0
   -4.2047    0.2216   -1.2994 H   0  0  0  0  0  0  0  0  0  0  0  0
   -3.9573   -2.0384   -0.3144 H   0  0  0  0  0  0  0  0  0  0  0  0
   -0.4055   -0.7718    1.7352 H   0  0  0  0  0  0  0  0  0  0  0  0
  1  2  1  0
  2  3  2  0
  3  4  1  0
  4  5  2  0
  5  6  1  0
  6  7  2  0
  7  8  1  0
  8  9  1  0
  9 10  1  0
 10 11  2  0
 11 12  1  0
 12 13  2  0
 13 14  1  0
 14 15  1  0
 14 16  2  0
  7  2  1  0
 16 10  1  0
  3 17  1  0
  4 18  1  0
  5 19  1  0
  6 20  1  0
  8 21  1  0
  8 22  1  0
  9 23  1  0
  9 24  1  0
 11 25  1  0
 12 26  1  0
 13 27  1  0
 16 28  1  0
M  RAD  1   1   3
M  END
$$$$
