
     RDKit          3D

 28 29  0  0  0  0  0  0  0  0999 V2000
    2.5830   -2.3835    0.9247 N   0  0  0  0  0  1  0  0  0  0  0  0
    2.4363   -0.9930    0.6446 C   0  0  0  0  0  0  0  0  0  0  0  0
    3.2243   -0.0693    1.3416 C   0  0  0  0  0  0  0  0  0  0  0  0
    3.0913    1.2989    1.0933 C   0  0  0  0  0  0  0  0  0  0  0  0
    2.1692    1.7514    0.1478 C   0  0  0  0  0  0  0  0  0  0  0  0
    1.3798    0.8371   -0.5542 C   0  0  0  0  0  0  0  0  0  0  0  0
    1.5081   -0.5434   -0.3188 C   0  0  0  0  0  0  0  0  0  0  0  0
    0.6096   -1.5113   -1.0542 C   0  0  0  0  0  0  0  0  0  0  0  0
   -0.6081   -1.9155   -0.2109 C   0  0  0  0  0  0  0  0  0  0  0  0
   -1.5052   -0.7385    0.0766 C   0  0  0  0  0  0  0  0  0  0  0  0
   -2.4161   -0.2900   -0.8941 C   0  0  0  0  0  0  0  0  0  0  0  0
   -3.2160    0.8294   -0.6450 C   0  0  0  0  0  0  0  0  0  0  0  0
   -3.1070    1.5125    0.5694 C   0  0  0  0  0  0  0  0  0  0  0  0
   -2.1964    1.0782    1.5370 C   0  0  0  0  0  0  0  0  0  0  0  0
   -2.0849    1.7472    2.7109 F   0  0  0  0  0  0  0  0  0  0  0  0
   -1.3959   -0.0421    1.2925 C   0  0  0  0  0  0  0  0  0  0  0  0
    3.9386   -0.4116    2.0800 H   0  0  0  0  0  0  0  0  0  0  0  0
    3.7011    2.0090    1.6369 H   0  0  0  0  0  0  0  0  0  0  0  0
    2.0629    2.8122   -0.0387 H   0  0  0  0  0  0  0  0  0  0  0  0
    0.6602    1.2062   -1.2747 H   0  0  0  0  0  0  0  0  0  0  0  0
    1.1843   -2.4245   -1.3202 H   0  0  0  0  0  0  0  0  0  0  0  0
    0.2662   -1.0688   -2.0153 H   0  0  0  0  0  0  0  0  0  0  0  0
   -1.1852   -2.6887   -0.7632 H   0  0  0  0  0  0  0  0  0  0  0  0
   -0.2709   -2.3875    0.7379 H   0  0  0  0  0  0  0  0  0  0  0  0
   -2.5018   -0.8040   -1.8435 H   0  0  0  0  0  0  0  0  0  0  0  0
   -3.9174    1.1702   -1.3956 H   0  0  0  0  0  0  0  0  0  0  0  0
   -3.7257    2.3805    0.7579 H   0  0  0  0  0  0  0  0  0  0  0  0
   -0.6843   -0.3611    2.0441 H   0  0  0  0  0  0  0  0  0  0  0  0
  1  2  1  0
  2  3  2  0
  3  4  1  0
  4  5  2  0
  5  6  1  0
  6  7  2  0
  7  8  1  0
  8  9  1  0
  9 10  1  0
 10 11  2  0
 11 12  1  0
 12 13  2  0
 13 14  1  0
 14 15  1  0
 14 16  2  0
  7  2  1  0
 16 10  1  0
  3 17  1  0
  4 18  1  0
  5 19  1  0
  6 20  1  0
  8 21  1  0
  8 22  1  0
  9 23  1  0
  9 24  1  0
 11 25  1  0
 12 26  1  0
 13 27  1  0
 16 28  1  0
M  RAD  1   1   3
M  END
$$$$
