
     RDKit          3D

 28 29  0  0  0  0  0  0  0  0999 V2000
   -2.7036    1.7495    1.5892 N   0  0  0  0  0  1  0  0  0  0  0  0
   -2.4931    0.6674    0.6847 C   0  0  0  0  0  0  0  0  0  0  0  0
   -3.3642    0.5043   -0.3992 C   0  0  0  0  0  0  0  0  0  0  0  0
   -3.1726   -0.5411   -1.3056 C   0  0  0  0  0  0  0  0  0  0  0  0
   -2.1087   -1.4287   -1.1343 C   0  0  0  0  0  0  0  0  0  0  0  0
   -1.2353   -1.2753   -0.0546 C   0  0  0  0  0  0  0  0  0  0  0  0
   -1.4206   -0.2311    0.8690 C   0  0  0  0  0  0  0  0  0  0  0  0
   -0.4352   -0.0547    2.0017 C   0  0  0  0  0  0  0  0  0  0  0  0
    0.6315    0.9997    1.6733 C   0  0  0  0  0  0  0  0  0  0  0  0
    1.4923    0.5809    0.5087 C   0  0  0  0  0  0  0  0  0  0  0  0
    2.5490   -0.3246    0.7000 C   0  0  0  0  0  0  0  0  0  0  0  0
    3.3189   -0.7482   -0.3876 C   0  0  0  0  0  0  0  0  0  0  0  0
    3.0351   -0.2778   -1.6726 C   0  0  0  0  0  0  0  0  0  0  0  0
    1.9795    0.6165   -1.8730 C   0  0  0  0  0  0  0  0  0  0  0  0
    1.6992    1.0649   -3.1213 F   0  0  0  0  0  0  0  0  0  0  0  0
    1.2083    1.0440   -0.7875 C   0  0  0  0  0  0  0  0  0  0  0  0
   -4.1891    1.1911   -0.5420 H   0  0  0  0  0  0  0  0  0  0  0  0
   -3.8473   -0.6611   -2.1433 H   0  0  0  0  0  0  0  0  0  0  0  0
   -1.9579   -2.2343   -1.8412 H   0  0  0  0  0  0  0  0  0  0  0  0
   -0.4075   -1.9650    0.0558 H   0  0  0  0  0  0  0  0  0  0  0  0
   -0.9766    0.2531    2.9220 H   0  0  0  0  0  0  0  0  0  0  0  0
    0.0592   -1.0222    2.2405 H   0  0  0  0  0  0  0  0  0  0  0  0
    0.1446    1.9774    1.4644 H   0  0  0  0  0  0  0  0  0  0  0  0
    1.2743    1.1492    2.5680 H   0  0  0  0  0  0  0  0  0  0  0  0
    2.7716   -0.7052    1.6892 H   0  0  0  0  0  0  0  0  0  0  0  0
    4.1328   -1.4450   -0.2348 H   0  0  0  0  0  0  0  0  0  0  0  0
    3.6311   -0.6099   -2.5129 H   0  0  0  0  0  0  0  0  0  0  0  0
    0.3844    1.7264   -0.9569 H   0  0  0  0  0  0  0  0  0  0  0  0
  1  2  1  0
  2  3  2  0
  3  4  1  0
  4  5  2  0
  5  6  1  0
  6  7  2  0
  7  8  1  0
  8  9  1  0
  9 10  1  0
 10 11  2  0
 11 12  1  0
 12 13  2  0
 13 14  1  0
 14 15  1  0
 14 16  2  0
  7  2  1  0
 16 10  1  0
  3 17  1  0
  4 18  1  0
  5 19  1  0
  6 20  1  0
  8 21  1  0
  8 22  1  0
  9 23  1  0
  9 24  1  0
 11 25  1  0
 12 26  1  0
 13 27  1  0
 16 28  1  0
M  RAD  1   1   3
M  END
$$$$
