
     RDKit          3D

 28 29  0  0  0  0  0  0  0  0999 V2000
    1.9881   -2.1722    0.3555 N   0  0  0  0  0  1  0  0  0  0  0  0
    2.6317   -0.9495    0.0120 C   0  0  0  0  0  0  0  0  0  0  0  0
    4.0330   -0.9372   -0.0051 C   0  0  0  0  0  0  0  0  0  0  0  0
    4.7308    0.2244   -0.3323 C   0  0  0  0  0  0  0  0  0  0  0  0
    4.0344    1.3883   -0.6464 C   0  0  0  0  0  0  0  0  0  0  0  0
    2.6387    1.3934   -0.6341 C   0  0  0  0  0  0  0  0  0  0  0  0
    1.9067    0.2345   -0.3073 C   0  0  0  0  0  0  0  0  0  0  0  0
    0.3888    0.3851   -0.3340 C   0  0  0  0  0  0  0  0  0  0  0  0
   -0.4650   -0.8414    0.0129 C   0  0  0  0  0  0  0  0  0  0  0  0
   -1.9306   -0.5001   -0.0667 C   0  0  0  0  0  0  0  0  0  0  0  0
   -2.6257   -0.6357   -1.2805 C   0  0  0  0  0  0  0  0  0  0  0  0
   -3.9776   -0.2877   -1.3608 C   0  0  0  0  0  0  0  0  0  0  0  0
   -4.6420    0.2067   -0.2351 C   0  0  0  0  0  0  0  0  0  0  0  0
   -3.9545    0.3580    0.9726 C   0  0  0  0  0  0  0  0  0  0  0  0
   -4.5981    0.8457    2.0618 F   0  0  0  0  0  0  0  0  0  0  0  0
   -2.6021    0.0109    1.0571 C   0  0  0  0  0  0  0  0  0  0  0  0
    4.5860   -1.8363    0.2374 H   0  0  0  0  0  0  0  0  0  0  0  0
    5.8132    0.2217   -0.3421 H   0  0  0  0  0  0  0  0  0  0  0  0
    4.5764    2.2902   -0.9004 H   0  0  0  0  0  0  0  0  0  0  0  0
    2.1218    2.3130   -0.8827 H   0  0  0  0  0  0  0  0  0  0  0  0
    0.1017    0.7258   -1.3538 H   0  0  0  0  0  0  0  0  0  0  0  0
    0.1186    1.2020    0.3716 H   0  0  0  0  0  0  0  0  0  0  0  0
   -0.2480   -1.6660   -0.7003 H   0  0  0  0  0  0  0  0  0  0  0  0
   -0.2307   -1.1848    1.0439 H   0  0  0  0  0  0  0  0  0  0  0  0
   -2.1206   -1.0087   -2.1629 H   0  0  0  0  0  0  0  0  0  0  0  0
   -4.5094   -0.3979   -2.2970 H   0  0  0  0  0  0  0  0  0  0  0  0
   -5.6882    0.4764   -0.3009 H   0  0  0  0  0  0  0  0  0  0  0  0
   -2.0773    0.1414    1.9956 H   0  0  0  0  0  0  0  0  0  0  0  0
  1  2  1  0
  2  3  2  0
  3  4  1  0
  4  5  2  0
  5  6  1  0
  6  7  2  0
  7  8  1  0
  8  9  1  0
  9 10  1  0
 10 11  2  0
 11 12  1  0
 12 13  2  0
 13 14  1  0
 14 15  1  0
 14 16  2  0
  7  2  1  0
 16 10  1  0
  3 17  1  0
  4 18  1  0
  5 19  1  0
  6 20  1  0
  8 21  1  0
  8 22  1  0
  9 23  1  0
  9 24  1  0
 11 25  1  0
 12 26  1  0
 13 27  1  0
 16 28  1  0
M  RAD  1   1   3
M  END
$$$$
