
     RDKit          3D

 28 29  0  0  0  0  0  0  0  0999 V2000
    1.8521   -1.9456   -1.5117 N   0  0  0  0  0  1  0  0  0  0  0  0
    2.5557   -0.9773   -0.7365 C   0  0  0  0  0  0  0  0  0  0  0  0
    3.9125   -0.7497   -0.9967 C   0  0  0  0  0  0  0  0  0  0  0  0
    4.6201    0.2044   -0.2616 C   0  0  0  0  0  0  0  0  0  0  0  0
    3.9743    0.9396    0.7343 C   0  0  0  0  0  0  0  0  0  0  0  0
    2.6204    0.7193    1.0014 C   0  0  0  0  0  0  0  0  0  0  0  0
    1.9004   -0.2486    0.2794 C   0  0  0  0  0  0  0  0  0  0  0  0
    0.4315   -0.4460    0.5627 C   0  0  0  0  0  0  0  0  0  0  0  0
   -0.4184    0.4409   -0.3521 C   0  0  0  0  0  0  0  0  0  0  0  0
   -1.8833    0.2404   -0.0714 C   0  0  0  0  0  0  0  0  0  0  0  0
   -2.6024   -0.7628   -0.7424 C   0  0  0  0  0  0  0  0  0  0  0  0
   -3.9554   -0.9699   -0.4568 C   0  0  0  0  0  0  0  0  0  0  0  0
   -4.5965   -0.1852    0.5058 C   0  0  0  0  0  0  0  0  0  0  0  0
   -3.8844    0.8057    1.1880 C   0  0  0  0  0  0  0  0  0  0  0  0
   -4.5053    1.5606    2.1277 F   0  0  0  0  0  0  0  0  0  0  0  0
   -2.5307    1.0159    0.9051 C   0  0  0  0  0  0  0  0  0  0  0  0
    4.4190   -1.3101   -1.7726 H   0  0  0  0  0  0  0  0  0  0  0  0
    5.6685    0.3776   -0.4677 H   0  0  0  0  0  0  0  0  0  0  0  0
    4.5224    1.6835    1.2979 H   0  0  0  0  0  0  0  0  0  0  0  0
    2.1322    1.3048    1.7709 H   0  0  0  0  0  0  0  0  0  0  0  0
    0.1548   -1.5134    0.4194 H   0  0  0  0  0  0  0  0  0  0  0  0
    0.2154   -0.1978    1.6256 H   0  0  0  0  0  0  0  0  0  0  0  0
   -0.2039    0.1992   -1.4165 H   0  0  0  0  0  0  0  0  0  0  0  0
   -0.1477    1.5086   -0.1952 H   0  0  0  0  0  0  0  0  0  0  0  0
   -2.1149   -1.3840   -1.4838 H   0  0  0  0  0  0  0  0  0  0  0  0
   -4.5063   -1.7413   -0.9794 H   0  0  0  0  0  0  0  0  0  0  0  0
   -5.6437   -0.3489    0.7256 H   0  0  0  0  0  0  0  0  0  0  0  0
   -1.9863    1.7800    1.4463 H   0  0  0  0  0  0  0  0  0  0  0  0
  1  2  1  0
  2  3  2  0
  3  4  1  0
  4  5  2  0
  5  6  1  0
  6  7  2  0
  7  8  1  0
  8  9  1  0
  9 10  1  0
 10 11  2  0
 11 12  1  0
 12 13  2  0
 13 14  1  0
 14 15  1  0
 14 16  2  0
  7  2  1  0
 16 10  1  0
  3 17  1  0
  4 18  1  0
  5 19  1  0
  6 20  1  0
  8 21  1  0
  8 22  1  0
  9 23  1  0
  9 24  1  0
 11 25  1  0
 12 26  1  0
 13 27  1  0
 16 28  1  0
M  RAD  1   1   3
M  END
$$$$
