
     RDKit          3D

 28 29  0  0  0  0  0  0  0  0999 V2000
   -2.0024    2.4318    1.3901 N   0  0  0  0  0  1  0  0  0  0  0  0
   -2.6210    1.4973    0.5075 C   0  0  0  0  0  0  0  0  0  0  0  0
   -3.9989    1.5911    0.2796 C   0  0  0  0  0  0  0  0  0  0  0  0
   -4.6335    0.6925   -0.5780 C   0  0  0  0  0  0  0  0  0  0  0  0
   -3.8945   -0.3051   -1.2129 C   0  0  0  0  0  0  0  0  0  0  0  0
   -2.5181   -0.4092   -0.9936 C   0  0  0  0  0  0  0  0  0  0  0  0
   -1.8578    0.4920   -0.1281 C   0  0  0  0  0  0  0  0  0  0  0  0
   -0.3631    0.4247    0.1463 C   0  0  0  0  0  0  0  0  0  0  0  0
    0.3984   -0.6954   -0.5786 C   0  0  0  0  0  0  0  0  0  0  0  0
    1.8612   -0.6538   -0.2231 C   0  0  0  0  0  0  0  0  0  0  0  0
    2.3393   -1.3570    0.8955 C   0  0  0  0  0  0  0  0  0  0  0  0
    3.6920   -1.2908    1.2435 C   0  0  0  0  0  0  0  0  0  0  0  0
    4.5737   -0.5160    0.4848 C   0  0  0  0  0  0  0  0  0  0  0  0
    4.1035    0.1978   -0.6214 C   0  0  0  0  0  0  0  0  0  0  0  0
    4.9582    0.9558   -1.3515 F   0  0  0  0  0  0  0  0  0  0  0  0
    2.7510    0.1342   -0.9727 C   0  0  0  0  0  0  0  0  0  0  0  0
   -4.5796    2.3631    0.7689 H   0  0  0  0  0  0  0  0  0  0  0  0
   -5.6992    0.7695   -0.7507 H   0  0  0  0  0  0  0  0  0  0  0  0
   -4.3894   -1.0012   -1.8781 H   0  0  0  0  0  0  0  0  0  0  0  0
   -1.9873   -1.1975   -1.5070 H   0  0  0  0  0  0  0  0  0  0  0  0
   -0.2175    0.2966    1.2417 H   0  0  0  0  0  0  0  0  0  0  0  0
    0.0865    1.4000   -0.1437 H   0  0  0  0  0  0  0  0  0  0  0  0
    0.2834   -0.5782   -1.6786 H   0  0  0  0  0  0  0  0  0  0  0  0
   -0.0224   -1.6840   -0.2911 H   0  0  0  0  0  0  0  0  0  0  0  0
    1.6650   -1.9535    1.4974 H   0  0  0  0  0  0  0  0  0  0  0  0
    4.0562   -1.8376    2.1037 H   0  0  0  0  0  0  0  0  0  0  0  0
    5.6200   -0.4658    0.7576 H   0  0  0  0  0  0  0  0  0  0  0  0
    2.3960    0.6988   -1.8261 H   0  0  0  0  0  0  0  0  0  0  0  0
  1  2  1  0
  2  3  2  0
  3  4  1  0
  4  5  2  0
  5  6  1  0
  6  7  2  0
  7  8  1  0
  8  9  1  0
  9 10  1  0
 10 11  2  0
 11 12  1  0
 12 13  2  0
 13 14  1  0
 14 15  1  0
 14 16  2  0
  7  2  1  0
 16 10  1  0
  3 17  1  0
  4 18  1  0
  5 19  1  0
  6 20  1  0
  8 21  1  0
  8 22  1  0
  9 23  1  0
  9 24  1  0
 11 25  1  0
 12 26  1  0
 13 27  1  0
 16 28  1  0
M  RAD  1   1   3
M  END
$$$$
