
     RDKit          3D

 28 29  0  0  0  0  0  0  0  0999 V2000
    1.9767   -2.2525   -1.1308 N   0  0  0  0  0  1  0  0  0  0  0  0
    2.6070   -1.0120   -0.8185 C   0  0  0  0  0  0  0  0  0  0  0  0
    3.9941   -0.9796   -0.6301 C   0  0  0  0  0  0  0  0  0  0  0  0
    4.6332    0.2202   -0.3084 C   0  0  0  0  0  0  0  0  0  0  0  0
    3.8888    1.3931   -0.1686 C   0  0  0  0  0  0  0  0  0  0  0  0
    2.5040    1.3708   -0.3549 C   0  0  0  0  0  0  0  0  0  0  0  0
    1.8504    0.1731   -0.6939 C   0  0  0  0  0  0  0  0  0  0  0  0
    0.3503    0.1664   -0.8580 C   0  0  0  0  0  0  0  0  0  0  0  0
   -0.3358   -0.1798    0.4669 C   0  0  0  0  0  0  0  0  0  0  0  0
   -1.8316   -0.1899    0.3012 C   0  0  0  0  0  0  0  0  0  0  0  0
   -2.4924   -1.3647   -0.0950 C   0  0  0  0  0  0  0  0  0  0  0  0
   -3.8784   -1.3644   -0.2805 C   0  0  0  0  0  0  0  0  0  0  0  0
   -4.6117   -0.1913   -0.0819 C   0  0  0  0  0  0  0  0  0  0  0  0
   -3.9596    0.9854    0.2987 C   0  0  0  0  0  0  0  0  0  0  0  0
   -4.6710    2.1248    0.4829 F   0  0  0  0  0  0  0  0  0  0  0  0
   -2.5733    0.9890    0.4853 C   0  0  0  0  0  0  0  0  0  0  0  0
    4.5777   -1.8863   -0.7291 H   0  0  0  0  0  0  0  0  0  0  0  0
    5.7054    0.2396   -0.1623 H   0  0  0  0  0  0  0  0  0  0  0  0
    4.3848    2.3204    0.0879 H   0  0  0  0  0  0  0  0  0  0  0  0
    1.9403    2.2877   -0.2335 H   0  0  0  0  0  0  0  0  0  0  0  0
    0.0549   -0.5662   -1.6406 H   0  0  0  0  0  0  0  0  0  0  0  0
    0.0042    1.1652   -1.2054 H   0  0  0  0  0  0  0  0  0  0  0  0
    0.0093   -1.1763    0.8207 H   0  0  0  0  0  0  0  0  0  0  0  0
   -0.0479    0.5637    1.2429 H   0  0  0  0  0  0  0  0  0  0  0  0
   -1.9345   -2.2780   -0.2613 H   0  0  0  0  0  0  0  0  0  0  0  0
   -4.3836   -2.2729   -0.5818 H   0  0  0  0  0  0  0  0  0  0  0  0
   -5.6842   -0.1939   -0.2276 H   0  0  0  0  0  0  0  0  0  0  0  0
   -2.0772    1.9084    0.7711 H   0  0  0  0  0  0  0  0  0  0  0  0
  1  2  1  0
  2  3  2  0
  3  4  1  0
  4  5  2  0
  5  6  1  0
  6  7  2  0
  7  8  1  0
  8  9  1  0
  9 10  1  0
 10 11  2  0
 11 12  1  0
 12 13  2  0
 13 14  1  0
 14 15  1  0
 14 16  2  0
  7  2  1  0
 16 10  1  0
  3 17  1  0
  4 18  1  0
  5 19  1  0
  6 20  1  0
  8 21  1  0
  8 22  1  0
  9 23  1  0
  9 24  1  0
 11 25  1  0
 12 26  1  0
 13 27  1  0
 16 28  1  0
M  RAD  1   1   3
M  END
$$$$
