
     RDKit          3D

 31 32  0  0  0  0  0  0  0  0999 V2000
   -4.4776    1.5919   -0.2278 C   0  0  0  0  0  0  0  0  0  0  0  0
   -3.5539    0.4120   -0.1593 C   0  0  0  0  0  0  0  0  0  0  0  0
   -4.0619   -0.8687    0.1067 C   0  0  0  0  0  0  0  0  0  0  0  0
   -3.2051   -1.9717    0.1429 C   0  0  0  0  0  0  0  0  0  0  0  0
   -1.8395   -1.8083   -0.1027 C   0  0  0  0  0  0  0  0  0  0  0  0
   -1.3222   -0.5382   -0.4026 C   0  0  0  0  0  0  0  0  0  0  0  0
    0.1527   -0.3576   -0.6421 C   0  0  0  0  0  0  0  0  0  0  0  0
    0.8801   -0.0678    0.6742 C   0  0  0  0  0  0  0  0  0  0  0  0
    2.3593    0.1111    0.4359 C   0  0  0  0  0  0  0  0  0  0  0  0
    2.8693    1.3970    0.1852 C   0  0  0  0  0  0  0  0  0  0  0  0
    4.2312    1.5815   -0.0679 C   0  0  0  0  0  0  0  0  0  0  0  0
    5.0952    0.4848   -0.0835 C   0  0  0  0  0  0  0  0  0  0  0  0
    4.5989   -0.8001    0.1490 C   0  0  0  0  0  0  0  0  0  0  0  0
    3.2358   -0.9949    0.4033 C   0  0  0  0  0  0  0  0  0  0  0  0
    2.7517   -2.3183    0.6219 N   0  0  0  0  0  1  0  0  0  0  0  0
   -2.1843    0.5706   -0.4240 C   0  0  0  0  0  0  0  0  0  0  0  0
   -4.8438    1.7139   -1.2685 H   0  0  0  0  0  0  0  0  0  0  0  0
   -3.9511    2.5196    0.0824 H   0  0  0  0  0  0  0  0  0  0  0  0
   -5.3476    1.4492    0.4481 H   0  0  0  0  0  0  0  0  0  0  0  0
   -5.1195   -1.0122    0.2911 H   0  0  0  0  0  0  0  0  0  0  0  0
   -3.6002   -2.9553    0.3616 H   0  0  0  0  0  0  0  0  0  0  0  0
   -1.1859   -2.6710   -0.0628 H   0  0  0  0  0  0  0  0  0  0  0  0
    0.5725   -1.2752   -1.1104 H   0  0  0  0  0  0  0  0  0  0  0  0
    0.3186    0.4812   -1.3540 H   0  0  0  0  0  0  0  0  0  0  0  0
    0.7065   -0.8976    1.3937 H   0  0  0  0  0  0  0  0  0  0  0  0
    0.4584    0.8522    1.1367 H   0  0  0  0  0  0  0  0  0  0  0  0
    2.2111    2.2573    0.1844 H   0  0  0  0  0  0  0  0  0  0  0  0
    4.6164    2.5754   -0.2554 H   0  0  0  0  0  0  0  0  0  0  0  0
    6.1495    0.6298   -0.2811 H   0  0  0  0  0  0  0  0  0  0  0  0
    5.2745   -1.6461    0.1275 H   0  0  0  0  0  0  0  0  0  0  0  0
   -1.7887    1.5554   -0.6439 H   0  0  0  0  0  0  0  0  0  0  0  0
  1  2  1  0
  2  3  1  0
  3  4  2  0
  4  5  1  0
  5  6  2  0
  6  7  1  0
  7  8  1  0
  8  9  1  0
  9 10  2  0
 10 11  1  0
 11 12  2  0
 12 13  1  0
 13 14  2  0
 14 15  1  0
  6 16  1  0
 16  2  2  0
 14  9  1  0
  1 17  1  0
  1 18  1  0
  1 19  1  0
  3 20  1  0
  4 21  1  0
  5 22  1  0
  7 23  1  0
  7 24  1  0
  8 25  1  0
  8 26  1  0
 10 27  1  0
 11 28  1  0
 12 29  1  0
 13 30  1  0
 16 31  1  0
M  RAD  1  15   3
M  END
$$$$
