
     RDKit          3D

 31 32  0  0  0  0  0  0  0  0999 V2000
   -4.2928    2.0493    0.0660 C   0  0  0  0  0  0  0  0  0  0  0  0
   -3.4875    0.7909    0.2003 C   0  0  0  0  0  0  0  0  0  0  0  0
   -4.1255   -0.4588    0.2098 C   0  0  0  0  0  0  0  0  0  0  0  0
   -3.3777   -1.6291    0.3629 C   0  0  0  0  0  0  0  0  0  0  0  0
   -1.9917   -1.5606    0.5247 C   0  0  0  0  0  0  0  0  0  0  0  0
   -1.3437   -0.3156    0.5502 C   0  0  0  0  0  0  0  0  0  0  0  0
    0.1523   -0.2425    0.6989 C   0  0  0  0  0  0  0  0  0  0  0  0
    0.8322   -0.2879   -0.6727 C   0  0  0  0  0  0  0  0  0  0  0  0
    2.3323   -0.2171   -0.5249 C   0  0  0  0  0  0  0  0  0  0  0  0
    2.9718    1.0346   -0.5509 C   0  0  0  0  0  0  0  0  0  0  0  0
    4.3565    1.1255   -0.3857 C   0  0  0  0  0  0  0  0  0  0  0  0
    5.1148   -0.0292   -0.1830 C   0  0  0  0  0  0  0  0  0  0  0  0
    4.4899   -1.2777   -0.1399 C   0  0  0  0  0  0  0  0  0  0  0  0
    3.1030   -1.3789   -0.3042 C   0  0  0  0  0  0  0  0  0  0  0  0
    2.4874   -2.6636   -0.2403 N   0  0  0  0  0  1  0  0  0  0  0  0
   -2.0969    0.8581    0.3817 C   0  0  0  0  0  0  0  0  0  0  0  0
   -3.7000    2.8412   -0.4394 H   0  0  0  0  0  0  0  0  0  0  0  0
   -5.2074    1.8677   -0.5379 H   0  0  0  0  0  0  0  0  0  0  0  0
   -4.5897    2.4067    1.0741 H   0  0  0  0  0  0  0  0  0  0  0  0
   -5.2001   -0.5273    0.0935 H   0  0  0  0  0  0  0  0  0  0  0  0
   -3.8734   -2.5912    0.3562 H   0  0  0  0  0  0  0  0  0  0  0  0
   -1.4240   -2.4765    0.6336 H   0  0  0  0  0  0  0  0  0  0  0  0
    0.4330    0.6967    1.2250 H   0  0  0  0  0  0  0  0  0  0  0  0
    0.5095   -1.0901    1.3247 H   0  0  0  0  0  0  0  0  0  0  0  0
    0.4736    0.5632   -1.2932 H   0  0  0  0  0  0  0  0  0  0  0  0
    0.5445   -1.2193   -1.2076 H   0  0  0  0  0  0  0  0  0  0  0  0
    2.3972    1.9409   -0.6978 H   0  0  0  0  0  0  0  0  0  0  0  0
    4.8416    2.0928   -0.4115 H   0  0  0  0  0  0  0  0  0  0  0  0
    6.1870    0.0438   -0.0540 H   0  0  0  0  0  0  0  0  0  0  0  0
    5.0843   -2.1676    0.0254 H   0  0  0  0  0  0  0  0  0  0  0  0
   -1.6006    1.8215    0.3892 H   0  0  0  0  0  0  0  0  0  0  0  0
  1  2  1  0
  2  3  1  0
  3  4  2  0
  4  5  1  0
  5  6  2  0
  6  7  1  0
  7  8  1  0
  8  9  1  0
  9 10  2  0
 10 11  1  0
 11 12  2  0
 12 13  1  0
 13 14  2  0
 14 15  1  0
  6 16  1  0
 16  2  2  0
 14  9  1  0
  1 17  1  0
  1 18  1  0
  1 19  1  0
  3 20  1  0
  4 21  1  0
  5 22  1  0
  7 23  1  0
  7 24  1  0
  8 25  1  0
  8 26  1  0
 10 27  1  0
 11 28  1  0
 12 29  1  0
 13 30  1  0
 16 31  1  0
M  RAD  1  15   3
M  END
$$$$
