
     RDKit          3D

 31 32  0  0  0  0  0  0  0  0999 V2000
    2.5927    1.3009   -1.8393 C   0  0  0  0  0  0  0  0  0  0  0  0
    2.2612    0.6873   -0.5115 C   0  0  0  0  0  0  0  0  0  0  0  0
    2.9169    1.1180    0.6518 C   0  0  0  0  0  0  0  0  0  0  0  0
    2.6204    0.5308    1.8845 C   0  0  0  0  0  0  0  0  0  0  0  0
    1.6783   -0.4976    1.9640 C   0  0  0  0  0  0  0  0  0  0  0  0
    1.0354   -0.9583    0.8045 C   0  0  0  0  0  0  0  0  0  0  0  0
   -0.0149   -2.0356    0.8965 C   0  0  0  0  0  0  0  0  0  0  0  0
   -1.3895   -1.4612    1.2684 C   0  0  0  0  0  0  0  0  0  0  0  0
   -1.9254   -0.5437    0.1922 C   0  0  0  0  0  0  0  0  0  0  0  0
   -2.5118   -1.1031   -0.9566 C   0  0  0  0  0  0  0  0  0  0  0  0
   -2.9717   -0.2817   -1.9891 C   0  0  0  0  0  0  0  0  0  0  0  0
   -2.8458    1.1049   -1.8894 C   0  0  0  0  0  0  0  0  0  0  0  0
   -2.2592    1.6742   -0.7569 C   0  0  0  0  0  0  0  0  0  0  0  0
   -1.7966    0.8601    0.2838 C   0  0  0  0  0  0  0  0  0  0  0  0
   -1.1891    1.4689    1.4212 N   0  0  0  0  0  1  0  0  0  0  0  0
    1.3333   -0.3626   -0.4326 C   0  0  0  0  0  0  0  0  0  0  0  0
    1.6988    1.3083   -2.4989 H   0  0  0  0  0  0  0  0  0  0  0  0
    2.9346    2.3504   -1.7140 H   0  0  0  0  0  0  0  0  0  0  0  0
    3.3984    0.7133   -2.3266 H   0  0  0  0  0  0  0  0  0  0  0  0
    3.6522    1.9117    0.6056 H   0  0  0  0  0  0  0  0  0  0  0  0
    3.1196    0.8759    2.7808 H   0  0  0  0  0  0  0  0  0  0  0  0
    1.4479   -0.9339    2.9280 H   0  0  0  0  0  0  0  0  0  0  0  0
   -0.0859   -2.5905   -0.0649 H   0  0  0  0  0  0  0  0  0  0  0  0
    0.2847   -2.7765    1.6695 H   0  0  0  0  0  0  0  0  0  0  0  0
   -1.3277   -0.9401    2.2480 H   0  0  0  0  0  0  0  0  0  0  0  0
   -2.0990   -2.3053    1.4111 H   0  0  0  0  0  0  0  0  0  0  0  0
   -2.6063   -2.1776   -1.0545 H   0  0  0  0  0  0  0  0  0  0  0  0
   -3.4221   -0.7214   -2.8697 H   0  0  0  0  0  0  0  0  0  0  0  0
   -3.2002    1.7392   -2.6916 H   0  0  0  0  0  0  0  0  0  0  0  0
   -2.1605    2.7505   -0.6902 H   0  0  0  0  0  0  0  0  0  0  0  0
    0.8315   -0.7053   -1.3301 H   0  0  0  0  0  0  0  0  0  0  0  0
  1  2  1  0
  2  3  1  0
  3  4  2  0
  4  5  1  0
  5  6  2  0
  6  7  1  0
  7  8  1  0
  8  9  1  0
  9 10  2  0
 10 11  1  0
 11 12  2  0
 12 13  1  0
 13 14  2  0
 14 15  1  0
  6 16  1  0
 16  2  2  0
 14  9  1  0
  1 17  1  0
  1 18  1  0
  1 19  1  0
  3 20  1  0
  4 21  1  0
  5 22  1  0
  7 23  1  0
  7 24  1  0
  8 25  1  0
  8 26  1  0
 10 27  1  0
 11 28  1  0
 12 29  1  0
 13 30  1  0
 16 31  1  0
M  RAD  1  15   3
M  END
$$$$
