
     RDKit          3D

 31 32  0  0  0  0  0  0  0  0999 V2000
   -3.9216    0.5622    1.5850 C   0  0  0  0  0  0  0  0  0  0  0  0
   -2.8452    0.5076    0.5419 C   0  0  0  0  0  0  0  0  0  0  0  0
   -2.5580    1.6389   -0.2366 C   0  0  0  0  0  0  0  0  0  0  0  0
   -1.5251    1.6023   -1.1766 C   0  0  0  0  0  0  0  0  0  0  0  0
   -0.7654    0.4416   -1.3397 C   0  0  0  0  0  0  0  0  0  0  0  0
   -1.0343   -0.6952   -0.5605 C   0  0  0  0  0  0  0  0  0  0  0  0
   -0.1756   -1.9276   -0.6905 C   0  0  0  0  0  0  0  0  0  0  0  0
    0.9031   -1.9882    0.4005 C   0  0  0  0  0  0  0  0  0  0  0  0
    1.8820   -0.8418    0.2893 C   0  0  0  0  0  0  0  0  0  0  0  0
    1.6985    0.3056    1.0816 C   0  0  0  0  0  0  0  0  0  0  0  0
    2.5654    1.3946    0.9620 C   0  0  0  0  0  0  0  0  0  0  0  0
    3.6210    1.3521    0.0493 C   0  0  0  0  0  0  0  0  0  0  0  0
    3.8106    0.2213   -0.7486 C   0  0  0  0  0  0  0  0  0  0  0  0
    2.9459   -0.8742   -0.6373 C   0  0  0  0  0  0  0  0  0  0  0  0
    3.1539   -2.0118   -1.4716 N   0  0  0  0  0  1  0  0  0  0  0  0
   -2.0682   -0.6515    0.3891 C   0  0  0  0  0  0  0  0  0  0  0  0
   -3.4857    0.9030    2.5473 H   0  0  0  0  0  0  0  0  0  0  0  0
   -4.3784   -0.4402    1.7287 H   0  0  0  0  0  0  0  0  0  0  0  0
   -4.7264    1.2655    1.2822 H   0  0  0  0  0  0  0  0  0  0  0  0
   -3.1310    2.5497   -0.1135 H   0  0  0  0  0  0  0  0  0  0  0  0
   -1.3073    2.4782   -1.7739 H   0  0  0  0  0  0  0  0  0  0  0  0
    0.0420    0.4338   -2.0615 H   0  0  0  0  0  0  0  0  0  0  0  0
   -0.8184   -2.8310   -0.6089 H   0  0  0  0  0  0  0  0  0  0  0  0
    0.3007   -1.9656   -1.6946 H   0  0  0  0  0  0  0  0  0  0  0  0
    0.4195   -1.9897    1.4023 H   0  0  0  0  0  0  0  0  0  0  0  0
    1.4480   -2.9532    0.3171 H   0  0  0  0  0  0  0  0  0  0  0  0
    0.8769    0.3607    1.7853 H   0  0  0  0  0  0  0  0  0  0  0  0
    2.4160    2.2742    1.5748 H   0  0  0  0  0  0  0  0  0  0  0  0
    4.2907    2.1974   -0.0426 H   0  0  0  0  0  0  0  0  0  0  0  0
    4.6290    0.1984   -1.4574 H   0  0  0  0  0  0  0  0  0  0  0  0
   -2.2627   -1.5171    1.0115 H   0  0  0  0  0  0  0  0  0  0  0  0
  1  2  1  0
  2  3  1  0
  3  4  2  0
  4  5  1  0
  5  6  2  0
  6  7  1  0
  7  8  1  0
  8  9  1  0
  9 10  2  0
 10 11  1  0
 11 12  2  0
 12 13  1  0
 13 14  2  0
 14 15  1  0
  6 16  1  0
 16  2  2  0
 14  9  1  0
  1 17  1  0
  1 18  1  0
  1 19  1  0
  3 20  1  0
  4 21  1  0
  5 22  1  0
  7 23  1  0
  7 24  1  0
  8 25  1  0
  8 26  1  0
 10 27  1  0
 11 28  1  0
 12 29  1  0
 13 30  1  0
 16 31  1  0
M  RAD  1  15   3
M  END
$$$$
