
     RDKit          3D

 31 32  0  0  0  0  0  0  0  0999 V2000
   -2.2111    2.5241    0.3433 C   0  0  0  0  0  0  0  0  0  0  0  0
   -2.1716    1.0472    0.0854 C   0  0  0  0  0  0  0  0  0  0  0  0
   -3.0356    0.4699   -0.8574 C   0  0  0  0  0  0  0  0  0  0  0  0
   -2.9607   -0.8972   -1.1357 C   0  0  0  0  0  0  0  0  0  0  0  0
   -2.0159   -1.6953   -0.4860 C   0  0  0  0  0  0  0  0  0  0  0  0
   -1.1398   -1.1306    0.4538 C   0  0  0  0  0  0  0  0  0  0  0  0
   -0.0749   -1.9776    1.1029 C   0  0  0  0  0  0  0  0  0  0  0  0
    1.1571   -2.1333    0.1994 C   0  0  0  0  0  0  0  0  0  0  0  0
    1.8402   -0.8089   -0.0549 C   0  0  0  0  0  0  0  0  0  0  0  0
    1.5520   -0.0952   -1.2321 C   0  0  0  0  0  0  0  0  0  0  0  0
    2.1317    1.1550   -1.4620 C   0  0  0  0  0  0  0  0  0  0  0  0
    3.0022    1.7067   -0.5203 C   0  0  0  0  0  0  0  0  0  0  0  0
    3.2932    1.0108    0.6554 C   0  0  0  0  0  0  0  0  0  0  0  0
    2.7150   -0.2414    0.8960 C   0  0  0  0  0  0  0  0  0  0  0  0
    3.0178   -0.9254    2.1100 N   0  0  0  0  0  1  0  0  0  0  0  0
   -1.2158    0.2454    0.7278 C   0  0  0  0  0  0  0  0  0  0  0  0
   -3.2319    2.9268    0.1707 H   0  0  0  0  0  0  0  0  0  0  0  0
   -1.9285    2.7441    1.3949 H   0  0  0  0  0  0  0  0  0  0  0  0
   -1.4995    3.0361   -0.3376 H   0  0  0  0  0  0  0  0  0  0  0  0
   -3.7631    1.0785   -1.3802 H   0  0  0  0  0  0  0  0  0  0  0  0
   -3.6294   -1.3372   -1.8642 H   0  0  0  0  0  0  0  0  0  0  0  0
   -1.9582   -2.7504   -0.7234 H   0  0  0  0  0  0  0  0  0  0  0  0
   -0.4895   -2.9861    1.3200 H   0  0  0  0  0  0  0  0  0  0  0  0
    0.2258   -1.5402    2.0800 H   0  0  0  0  0  0  0  0  0  0  0  0
    1.8720   -2.8352    0.6803 H   0  0  0  0  0  0  0  0  0  0  0  0
    0.8557   -2.6055   -0.7617 H   0  0  0  0  0  0  0  0  0  0  0  0
    0.8676   -0.5018   -1.9664 H   0  0  0  0  0  0  0  0  0  0  0  0
    1.9019    1.6986   -2.3692 H   0  0  0  0  0  0  0  0  0  0  0  0
    3.4491    2.6760   -0.6998 H   0  0  0  0  0  0  0  0  0  0  0  0
    3.9658    1.4480    1.3828 H   0  0  0  0  0  0  0  0  0  0  0  0
   -0.5215    0.6939    1.4289 H   0  0  0  0  0  0  0  0  0  0  0  0
  1  2  1  0
  2  3  1  0
  3  4  2  0
  4  5  1  0
  5  6  2  0
  6  7  1  0
  7  8  1  0
  8  9  1  0
  9 10  2  0
 10 11  1  0
 11 12  2  0
 12 13  1  0
 13 14  2  0
 14 15  1  0
  6 16  1  0
 16  2  2  0
 14  9  1  0
  1 17  1  0
  1 18  1  0
  1 19  1  0
  3 20  1  0
  4 21  1  0
  5 22  1  0
  7 23  1  0
  7 24  1  0
  8 25  1  0
  8 26  1  0
 10 27  1  0
 11 28  1  0
 12 29  1  0
 13 30  1  0
 16 31  1  0
M  RAD  1  15   3
M  END
$$$$
