
     RDKit          3D

 31 32  0  0  0  0  0  0  0  0999 V2000
    2.5274    0.1718   -2.2975 C   0  0  0  0  0  0  0  0  0  0  0  0
    2.1599    0.5979   -0.9072 C   0  0  0  0  0  0  0  0  0  0  0  0
    2.6185    1.8216   -0.3966 C   0  0  0  0  0  0  0  0  0  0  0  0
    2.2913    2.2071    0.9060 C   0  0  0  0  0  0  0  0  0  0  0  0
    1.5158    1.3700    1.7120 C   0  0  0  0  0  0  0  0  0  0  0  0
    1.0741    0.1302    1.2246 C   0  0  0  0  0  0  0  0  0  0  0  0
    0.1986   -0.7520    2.0774 C   0  0  0  0  0  0  0  0  0  0  0  0
   -1.2789   -0.3431    1.9910 C   0  0  0  0  0  0  0  0  0  0  0  0
   -1.8367   -0.5406    0.5992 C   0  0  0  0  0  0  0  0  0  0  0  0
   -2.2088   -1.8318    0.1861 C   0  0  0  0  0  0  0  0  0  0  0  0
   -2.6814   -2.0526   -1.1100 C   0  0  0  0  0  0  0  0  0  0  0  0
   -2.7817   -0.9895   -2.0091 C   0  0  0  0  0  0  0  0  0  0  0  0
   -2.4092    0.2974   -1.6147 C   0  0  0  0  0  0  0  0  0  0  0  0
   -1.9358    0.5295   -0.3178 C   0  0  0  0  0  0  0  0  0  0  0  0
   -1.5495    1.8514    0.0519 N   0  0  0  0  0  1  0  0  0  0  0  0
    1.4019   -0.2519   -0.0872 C   0  0  0  0  0  0  0  0  0  0  0  0
    3.4598   -0.4295   -2.2650 H   0  0  0  0  0  0  0  0  0  0  0  0
    1.7155   -0.4409   -2.7444 H   0  0  0  0  0  0  0  0  0  0  0  0
    2.6886    1.0557   -2.9508 H   0  0  0  0  0  0  0  0  0  0  0  0
    3.2236    2.4796   -1.0081 H   0  0  0  0  0  0  0  0  0  0  0  0
    2.6367    3.1581    1.2904 H   0  0  0  0  0  0  0  0  0  0  0  0
    1.2578    1.6878    2.7147 H   0  0  0  0  0  0  0  0  0  0  0  0
    0.5279   -0.6831    3.1371 H   0  0  0  0  0  0  0  0  0  0  0  0
    0.3130   -1.8170    1.7777 H   0  0  0  0  0  0  0  0  0  0  0  0
   -1.8606   -0.9650    2.7059 H   0  0  0  0  0  0  0  0  0  0  0  0
   -1.3991    0.7091    2.3276 H   0  0  0  0  0  0  0  0  0  0  0  0
   -2.1259   -2.6693    0.8680 H   0  0  0  0  0  0  0  0  0  0  0  0
   -2.9659   -3.0502   -1.4190 H   0  0  0  0  0  0  0  0  0  0  0  0
   -3.1455   -1.1633   -3.0136 H   0  0  0  0  0  0  0  0  0  0  0  0
   -2.4850    1.1154   -2.3202 H   0  0  0  0  0  0  0  0  0  0  0  0
    1.0537   -1.2026   -0.4740 H   0  0  0  0  0  0  0  0  0  0  0  0
  1  2  1  0
  2  3  1  0
  3  4  2  0
  4  5  1  0
  5  6  2  0
  6  7  1  0
  7  8  1  0
  8  9  1  0
  9 10  2  0
 10 11  1  0
 11 12  2  0
 12 13  1  0
 13 14  2  0
 14 15  1  0
  6 16  1  0
 16  2  2  0
 14  9  1  0
  1 17  1  0
  1 18  1  0
  1 19  1  0
  3 20  1  0
  4 21  1  0
  5 22  1  0
  7 23  1  0
  7 24  1  0
  8 25  1  0
  8 26  1  0
 10 27  1  0
 11 28  1  0
 12 29  1  0
 13 30  1  0
 16 31  1  0
M  RAD  1  15   3
M  END
$$$$
