
     RDKit          3D

 32 33  0  0  0  0  0  0  0  0999 V2000
   -4.2726    1.4269    1.5825 C   0  0  0  0  0  0  0  0  0  0  0  0
   -3.9909    0.7506    0.3616 O   0  0  0  0  0  0  0  0  0  0  0  0
   -2.8179    0.0230    0.1121 C   0  0  0  0  0  0  0  0  0  0  0  0
   -2.6682   -0.5898   -1.1374 C   0  0  0  0  0  0  0  0  0  0  0  0
   -1.5165   -1.3230   -1.4361 C   0  0  0  0  0  0  0  0  0  0  0  0
   -0.4978   -1.4608   -0.4815 C   0  0  0  0  0  0  0  0  0  0  0  0
    0.7666   -2.2077   -0.8225 C   0  0  0  0  0  0  0  0  0  0  0  0
    1.7421   -1.3379   -1.6284 C   0  0  0  0  0  0  0  0  0  0  0  0
    2.2240   -0.1464   -0.8327 C   0  0  0  0  0  0  0  0  0  0  0  0
    1.5911    1.0987   -0.9971 C   0  0  0  0  0  0  0  0  0  0  0  0
    1.9906    2.2017   -0.2383 C   0  0  0  0  0  0  0  0  0  0  0  0
    3.0221    2.0735    0.6937 C   0  0  0  0  0  0  0  0  0  0  0  0
    3.6549    0.8410    0.8716 C   0  0  0  0  0  0  0  0  0  0  0  0
    3.2601   -0.2706    0.1174 C   0  0  0  0  0  0  0  0  0  0  0  0
    3.9139   -1.5204    0.3264 N   0  0  0  0  0  1  0  0  0  0  0  0
   -0.6415   -0.8431    0.7708 C   0  0  0  0  0  0  0  0  0  0  0  0
   -1.7927   -0.1083    1.0684 C   0  0  0  0  0  0  0  0  0  0  0  0
   -5.2642    1.9177    1.5047 H   0  0  0  0  0  0  0  0  0  0  0  0
   -4.2997    0.7018    2.4232 H   0  0  0  0  0  0  0  0  0  0  0  0
   -3.5043    2.2056    1.7736 H   0  0  0  0  0  0  0  0  0  0  0  0
   -3.4472   -0.4925   -1.8830 H   0  0  0  0  0  0  0  0  0  0  0  0
   -1.4155   -1.7786   -2.4135 H   0  0  0  0  0  0  0  0  0  0  0  0
    1.2630   -2.5738    0.1027 H   0  0  0  0  0  0  0  0  0  0  0  0
    0.5093   -3.1073   -1.4229 H   0  0  0  0  0  0  0  0  0  0  0  0
    2.6119   -1.9584   -1.9341 H   0  0  0  0  0  0  0  0  0  0  0  0
    1.2522   -1.0037   -2.5696 H   0  0  0  0  0  0  0  0  0  0  0  0
    0.7802    1.2125   -1.7061 H   0  0  0  0  0  0  0  0  0  0  0  0
    1.4969    3.1558   -0.3702 H   0  0  0  0  0  0  0  0  0  0  0  0
    3.3292    2.9290    1.2813 H   0  0  0  0  0  0  0  0  0  0  0  0
    4.4508    0.7490    1.6000 H   0  0  0  0  0  0  0  0  0  0  0  0
    0.1433   -0.9214    1.5131 H   0  0  0  0  0  0  0  0  0  0  0  0
   -1.8733    0.3570    2.0412 H   0  0  0  0  0  0  0  0  0  0  0  0
  1  2  1  0
  2  3  1  0
  3  4  1  0
  4  5  2  0
  5  6  1  0
  6  7  1  0
  7  8  1  0
  8  9  1  0
  9 10  2  0
 10 11  1  0
 11 12  2  0
 12 13  1  0
 13 14  2  0
 14 15  1  0
  6 16  2  0
 16 17  1  0
 17  3  2  0
 14  9  1  0
  1 18  1  0
  1 19  1  0
  1 20  1  0
  4 21  1  0
  5 22  1  0
  7 23  1  0
  7 24  1  0
  8 25  1  0
  8 26  1  0
 10 27  1  0
 11 28  1  0
 12 29  1  0
 13 30  1  0
 16 31  1  0
 17 32  1  0
M  RAD  1  15   3
M  END
$$$$
