
     RDKit          3D

 32 33  0  0  0  0  0  0  0  0999 V2000
    6.0319   -0.3097   -0.4048 C   0  0  0  0  0  0  0  0  0  0  0  0
    5.0893    0.6650    0.0300 O   0  0  0  0  0  0  0  0  0  0  0  0
    3.7048    0.5748   -0.1764 C   0  0  0  0  0  0  0  0  0  0  0  0
    2.8916    1.6069    0.3060 C   0  0  0  0  0  0  0  0  0  0  0  0
    1.5063    1.5640    0.1253 C   0  0  0  0  0  0  0  0  0  0  0  0
    0.9141    0.4879   -0.5529 C   0  0  0  0  0  0  0  0  0  0  0  0
   -0.5806    0.4235   -0.7166 C   0  0  0  0  0  0  0  0  0  0  0  0
   -1.2230   -0.2869    0.4786 C   0  0  0  0  0  0  0  0  0  0  0  0
   -2.7221   -0.3485    0.3173 C   0  0  0  0  0  0  0  0  0  0  0  0
   -3.3052   -1.4624   -0.3118 C   0  0  0  0  0  0  0  0  0  0  0  0
   -4.6887   -1.5262   -0.4985 C   0  0  0  0  0  0  0  0  0  0  0  0
   -5.5023   -0.4759   -0.0690 C   0  0  0  0  0  0  0  0  0  0  0  0
   -4.9341    0.6434    0.5439 C   0  0  0  0  0  0  0  0  0  0  0  0
   -3.5490    0.7165    0.7351 C   0  0  0  0  0  0  0  0  0  0  0  0
   -2.9923    1.8770    1.3491 N   0  0  0  0  0  1  0  0  0  0  0  0
    1.7242   -0.5557   -1.0263 C   0  0  0  0  0  0  0  0  0  0  0  0
    3.1099   -0.5124   -0.8452 C   0  0  0  0  0  0  0  0  0  0  0  0
    5.8182   -1.2881    0.0750 H   0  0  0  0  0  0  0  0  0  0  0  0
    5.9955   -0.4096   -1.5102 H   0  0  0  0  0  0  0  0  0  0  0  0
    7.0509    0.0150   -0.1108 H   0  0  0  0  0  0  0  0  0  0  0  0
    3.3361    2.4454    0.8271 H   0  0  0  0  0  0  0  0  0  0  0  0
    0.8950    2.3686    0.5153 H   0  0  0  0  0  0  0  0  0  0  0  0
   -0.9926    1.4527   -0.8091 H   0  0  0  0  0  0  0  0  0  0  0  0
   -0.8338   -0.1186   -1.6546 H   0  0  0  0  0  0  0  0  0  0  0  0
   -0.9616    0.2436    1.4202 H   0  0  0  0  0  0  0  0  0  0  0  0
   -0.8100   -1.3166    0.5642 H   0  0  0  0  0  0  0  0  0  0  0  0
   -2.6875   -2.2815   -0.6593 H   0  0  0  0  0  0  0  0  0  0  0  0
   -5.1300   -2.3894   -0.9797 H   0  0  0  0  0  0  0  0  0  0  0  0
   -6.5734   -0.5268   -0.2158 H   0  0  0  0  0  0  0  0  0  0  0  0
   -5.5714    1.4571    0.8671 H   0  0  0  0  0  0  0  0  0  0  0  0
    1.2820   -1.4039   -1.5343 H   0  0  0  0  0  0  0  0  0  0  0  0
    3.7079   -1.3293   -1.2252 H   0  0  0  0  0  0  0  0  0  0  0  0
  1  2  1  0
  2  3  1  0
  3  4  1  0
  4  5  2  0
  5  6  1  0
  6  7  1  0
  7  8  1  0
  8  9  1  0
  9 10  2  0
 10 11  1  0
 11 12  2  0
 12 13  1  0
 13 14  2  0
 14 15  1  0
  6 16  2  0
 16 17  1  0
 17  3  2  0
 14  9  1  0
  1 18  1  0
  1 19  1  0
  1 20  1  0
  4 21  1  0
  5 22  1  0
  7 23  1  0
  7 24  1  0
  8 25  1  0
  8 26  1  0
 10 27  1  0
 11 28  1  0
 12 29  1  0
 13 30  1  0
 16 31  1  0
 17 32  1  0
M  RAD  1  15   3
M  END
$$$$
