
     RDKit          3D

 32 33  0  0  0  0  0  0  0  0999 V2000
   -4.2478    2.2130   -0.1667 C   0  0  0  0  0  0  0  0  0  0  0  0
   -3.8509    1.0393   -0.8682 O   0  0  0  0  0  0  0  0  0  0  0  0
   -2.7688    0.2256   -0.5012 C   0  0  0  0  0  0  0  0  0  0  0  0
   -1.9621    0.5017    0.6194 C   0  0  0  0  0  0  0  0  0  0  0  0
   -0.8937   -0.3395    0.9428 C   0  0  0  0  0  0  0  0  0  0  0  0
   -0.6170   -1.4693    0.1572 C   0  0  0  0  0  0  0  0  0  0  0  0
    0.5677   -2.3464    0.4737 C   0  0  0  0  0  0  0  0  0  0  0  0
    1.7869   -1.9899   -0.3890 C   0  0  0  0  0  0  0  0  0  0  0  0
    2.2835   -0.5894   -0.1113 C   0  0  0  0  0  0  0  0  0  0  0  0
    1.8757    0.4684   -0.9437 C   0  0  0  0  0  0  0  0  0  0  0  0
    2.2861    1.7771   -0.6778 C   0  0  0  0  0  0  0  0  0  0  0  0
    3.1037    2.0446    0.4217 C   0  0  0  0  0  0  0  0  0  0  0  0
    3.5108    1.0042    1.2603 C   0  0  0  0  0  0  0  0  0  0  0  0
    3.1029   -0.3103    1.0032 C   0  0  0  0  0  0  0  0  0  0  0  0
    3.5223   -1.3527    1.8811 N   0  0  0  0  0  1  0  0  0  0  0  0
   -1.4168   -1.7393   -0.9633 C   0  0  0  0  0  0  0  0  0  0  0  0
   -2.4862   -0.8990   -1.2852 C   0  0  0  0  0  0  0  0  0  0  0  0
   -4.5295    1.9574    0.8766 H   0  0  0  0  0  0  0  0  0  0  0  0
   -3.4229    2.9565   -0.1691 H   0  0  0  0  0  0  0  0  0  0  0  0
   -5.1284    2.6580   -0.6736 H   0  0  0  0  0  0  0  0  0  0  0  0
   -2.1489    1.3651    1.2430 H   0  0  0  0  0  0  0  0  0  0  0  0
   -0.2747   -0.1036    1.7998 H   0  0  0  0  0  0  0  0  0  0  0  0
    0.8318   -2.2687    1.5511 H   0  0  0  0  0  0  0  0  0  0  0  0
    0.2964   -3.4085    0.2884 H   0  0  0  0  0  0  0  0  0  0  0  0
    1.5274   -2.1035   -1.4647 H   0  0  0  0  0  0  0  0  0  0  0  0
    2.5993   -2.7205   -0.1863 H   0  0  0  0  0  0  0  0  0  0  0  0
    1.2305    0.2806   -1.7932 H   0  0  0  0  0  0  0  0  0  0  0  0
    1.9662    2.5854   -1.3227 H   0  0  0  0  0  0  0  0  0  0  0  0
    3.4195    3.0594    0.6265 H   0  0  0  0  0  0  0  0  0  0  0  0
    4.1411    1.2210    2.1137 H   0  0  0  0  0  0  0  0  0  0  0  0
   -1.2079   -2.5972   -1.5905 H   0  0  0  0  0  0  0  0  0  0  0  0
   -3.0961   -1.1197   -2.1520 H   0  0  0  0  0  0  0  0  0  0  0  0
  1  2  1  0
  2  3  1  0
  3  4  1  0
  4  5  2  0
  5  6  1  0
  6  7  1  0
  7  8  1  0
  8  9  1  0
  9 10  2  0
 10 11  1  0
 11 12  2  0
 12 13  1  0
 13 14  2  0
 14 15  1  0
  6 16  2  0
 16 17  1  0
 17  3  2  0
 14  9  1  0
  1 18  1  0
  1 19  1  0
  1 20  1  0
  4 21  1  0
  5 22  1  0
  7 23  1  0
  7 24  1  0
  8 25  1  0
  8 26  1  0
 10 27  1  0
 11 28  1  0
 12 29  1  0
 13 30  1  0
 16 31  1  0
 17 32  1  0
M  RAD  1  15   3
M  END
$$$$
