
     RDKit          3D

 32 33  0  0  0  0  0  0  0  0999 V2000
    4.2817   -0.9864   -2.0159 C   0  0  0  0  0  0  0  0  0  0  0  0
    3.9328   -0.9544   -0.6358 O   0  0  0  0  0  0  0  0  0  0  0  0
    2.8072   -0.2960   -0.1188 C   0  0  0  0  0  0  0  0  0  0  0  0
    2.5808   -0.3496    1.2614 C   0  0  0  0  0  0  0  0  0  0  0  0
    1.4716    0.2871    1.8249 C   0  0  0  0  0  0  0  0  0  0  0  0
    0.5743    0.9963    1.0126 C   0  0  0  0  0  0  0  0  0  0  0  0
   -0.6499    1.6387    1.6141 C   0  0  0  0  0  0  0  0  0  0  0  0
   -1.7758    0.6193    1.8390 C   0  0  0  0  0  0  0  0  0  0  0  0
   -2.2724    0.0321    0.5376 C   0  0  0  0  0  0  0  0  0  0  0  0
   -1.7699   -1.2062    0.0994 C   0  0  0  0  0  0  0  0  0  0  0  0
   -2.1812   -1.7449   -1.1223 C   0  0  0  0  0  0  0  0  0  0  0  0
   -3.0944   -1.0533   -1.9203 C   0  0  0  0  0  0  0  0  0  0  0  0
   -3.5965    0.1806   -1.5000 C   0  0  0  0  0  0  0  0  0  0  0  0
   -3.1887    0.7295   -0.2783 C   0  0  0  0  0  0  0  0  0  0  0  0
   -3.7068    1.9961    0.1224 N   0  0  0  0  0  1  0  0  0  0  0  0
    0.7947    1.0477   -0.3727 C   0  0  0  0  0  0  0  0  0  0  0  0
    1.9031    0.4091   -0.9361 C   0  0  0  0  0  0  0  0  0  0  0  0
    4.4591    0.0445   -2.3888 H   0  0  0  0  0  0  0  0  0  0  0  0
    3.4734   -1.4717   -2.6028 H   0  0  0  0  0  0  0  0  0  0  0  0
    5.2137   -1.5747   -2.1407 H   0  0  0  0  0  0  0  0  0  0  0  0
    3.2660   -0.8925    1.9000 H   0  0  0  0  0  0  0  0  0  0  0  0
    1.3083    0.2227    2.8936 H   0  0  0  0  0  0  0  0  0  0  0  0
   -0.3804    2.0957    2.5911 H   0  0  0  0  0  0  0  0  0  0  0  0
   -1.0131    2.4656    0.9654 H   0  0  0  0  0  0  0  0  0  0  0  0
   -1.4179   -0.1868    2.5170 H   0  0  0  0  0  0  0  0  0  0  0  0
   -2.6161    1.1192    2.3670 H   0  0  0  0  0  0  0  0  0  0  0  0
   -1.0507   -1.7498    0.6998 H   0  0  0  0  0  0  0  0  0  0  0  0
   -1.7881   -2.6978   -1.4525 H   0  0  0  0  0  0  0  0  0  0  0  0
   -3.4108   -1.4720   -2.8669 H   0  0  0  0  0  0  0  0  0  0  0  0
   -4.3008    0.7127   -2.1272 H   0  0  0  0  0  0  0  0  0  0  0  0
    0.1017    1.5733   -1.0182 H   0  0  0  0  0  0  0  0  0  0  0  0
    2.0448    0.4656   -2.0066 H   0  0  0  0  0  0  0  0  0  0  0  0
  1  2  1  0
  2  3  1  0
  3  4  1  0
  4  5  2  0
  5  6  1  0
  6  7  1  0
  7  8  1  0
  8  9  1  0
  9 10  2  0
 10 11  1  0
 11 12  2  0
 12 13  1  0
 13 14  2  0
 14 15  1  0
  6 16  2  0
 16 17  1  0
 17  3  2  0
 14  9  1  0
  1 18  1  0
  1 19  1  0
  1 20  1  0
  4 21  1  0
  5 22  1  0
  7 23  1  0
  7 24  1  0
  8 25  1  0
  8 26  1  0
 10 27  1  0
 11 28  1  0
 12 29  1  0
 13 30  1  0
 16 31  1  0
 17 32  1  0
M  RAD  1  15   3
M  END
$$$$
