
     RDKit          3D

 32 33  0  0  0  0  0  0  0  0999 V2000
   -4.1132    1.8657   -1.6033 C   0  0  0  0  0  0  0  0  0  0  0  0
   -3.9348    0.9500   -0.5276 O   0  0  0  0  0  0  0  0  0  0  0  0
   -2.7971    0.1488   -0.3505 C   0  0  0  0  0  0  0  0  0  0  0  0
   -2.7513   -0.7060    0.7570 C   0  0  0  0  0  0  0  0  0  0  0  0
   -1.6386   -1.5218    0.9796 C   0  0  0  0  0  0  0  0  0  0  0  0
   -0.5551   -1.4995    0.0888 C   0  0  0  0  0  0  0  0  0  0  0  0
    0.6667   -2.3408    0.3578 C   0  0  0  0  0  0  0  0  0  0  0  0
    1.5962   -1.6825    1.3874 C   0  0  0  0  0  0  0  0  0  0  0  0
    2.1575   -0.3725    0.8834 C   0  0  0  0  0  0  0  0  0  0  0  0
    1.5375    0.8348    1.2519 C   0  0  0  0  0  0  0  0  0  0  0  0
    2.0123    2.0534    0.7605 C   0  0  0  0  0  0  0  0  0  0  0  0
    3.1071    2.0801   -0.1054 C   0  0  0  0  0  0  0  0  0  0  0  0
    3.7282    0.8878   -0.4846 C   0  0  0  0  0  0  0  0  0  0  0  0
    3.2583   -0.3384    0.0010 C   0  0  0  0  0  0  0  0  0  0  0  0
    3.9024   -1.5422   -0.4107 N   0  0  0  0  0  1  0  0  0  0  0  0
   -0.5946   -0.6395   -1.0199 C   0  0  0  0  0  0  0  0  0  0  0  0
   -1.7069    0.1777   -1.2411 C   0  0  0  0  0  0  0  0  0  0  0  0
   -3.3186    2.6411   -1.5803 H   0  0  0  0  0  0  0  0  0  0  0  0
   -4.0917    1.3246   -2.5728 H   0  0  0  0  0  0  0  0  0  0  0  0
   -5.0986    2.3635   -1.4960 H   0  0  0  0  0  0  0  0  0  0  0  0
   -3.5812   -0.7341    1.4517 H   0  0  0  0  0  0  0  0  0  0  0  0
   -1.6183   -2.1667    1.8494 H   0  0  0  0  0  0  0  0  0  0  0  0
    0.3492   -3.3334    0.7452 H   0  0  0  0  0  0  0  0  0  0  0  0
    1.2230   -2.5308   -0.5862 H   0  0  0  0  0  0  0  0  0  0  0  0
    2.4294   -2.3800    1.6204 H   0  0  0  0  0  0  0  0  0  0  0  0
    1.0446   -1.5272    2.3408 H   0  0  0  0  0  0  0  0  0  0  0  0
    0.6788    0.8313    1.9121 H   0  0  0  0  0  0  0  0  0  0  0  0
    1.5281    2.9776    1.0481 H   0  0  0  0  0  0  0  0  0  0  0  0
    3.4726    3.0252   -0.4859 H   0  0  0  0  0  0  0  0  0  0  0  0
    4.5738    0.9170   -1.1604 H   0  0  0  0  0  0  0  0  0  0  0  0
    0.2412   -0.5936   -1.7073 H   0  0  0  0  0  0  0  0  0  0  0  0
   -1.7069    0.8304   -2.1032 H   0  0  0  0  0  0  0  0  0  0  0  0
  1  2  1  0
  2  3  1  0
  3  4  1  0
  4  5  2  0
  5  6  1  0
  6  7  1  0
  7  8  1  0
  8  9  1  0
  9 10  2  0
 10 11  1  0
 11 12  2  0
 12 13  1  0
 13 14  2  0
 14 15  1  0
  6 16  2  0
 16 17  1  0
 17  3  2  0
 14  9  1  0
  1 18  1  0
  1 19  1  0
  1 20  1  0
  4 21  1  0
  5 22  1  0
  7 23  1  0
  7 24  1  0
  8 25  1  0
  8 26  1  0
 10 27  1  0
 11 28  1  0
 12 29  1  0
 13 30  1  0
 16 31  1  0
 17 32  1  0
M  RAD  1  15   3
M  END
$$$$
