
     RDKit          3D

 33 35  0  0  0  0  0  0  0  0999 V2000
   -3.3322   -1.4813   -1.9549 N   0  0  0  0  0  1  0  0  0  0  0  0
   -2.9718   -0.3960   -1.1032 C   0  0  0  0  0  0  0  0  0  0  0  0
   -3.3233    0.9079   -1.4729 C   0  0  0  0  0  0  0  0  0  0  0  0
   -2.9701    1.9893   -0.6622 C   0  0  0  0  0  0  0  0  0  0  0  0
   -2.2636    1.7735    0.5224 C   0  0  0  0  0  0  0  0  0  0  0  0
   -1.9110    0.4758    0.9012 C   0  0  0  0  0  0  0  0  0  0  0  0
   -2.2648   -0.6225    0.0969 C   0  0  0  0  0  0  0  0  0  0  0  0
   -1.8228   -2.0118    0.4970 C   0  0  0  0  0  0  0  0  0  0  0  0
   -0.5374   -2.4345   -0.2289 C   0  0  0  0  0  0  0  0  0  0  0  0
    0.6262   -1.5499    0.1376 C   0  0  0  0  0  0  0  0  0  0  0  0
    1.3354   -1.7703    1.3424 C   0  0  0  0  0  0  0  0  0  0  0  0
    2.3818   -0.9124    1.7187 C   0  0  0  0  0  0  0  0  0  0  0  0
    2.6906    0.1575    0.8824 C   0  0  0  0  0  0  0  0  0  0  0  0
    3.6667    1.1078    1.0854 O   0  0  0  0  0  0  0  0  0  0  0  0
    3.6678    2.0486    0.0114 C   0  0  0  0  0  0  0  0  0  0  0  0
    2.5423    1.5949   -0.9511 C   0  0  0  0  0  0  0  0  0  0  0  0
    2.0104    0.3817   -0.2784 C   0  0  0  0  0  0  0  0  0  0  0  0
    0.9689   -0.4530   -0.6821 C   0  0  0  0  0  0  0  0  0  0  0  0
   -3.8670    1.0845   -2.3925 H   0  0  0  0  0  0  0  0  0  0  0  0
   -3.2412    2.9955   -0.9544 H   0  0  0  0  0  0  0  0  0  0  0  0
   -1.9847    2.6131    1.1459 H   0  0  0  0  0  0  0  0  0  0  0  0
   -1.3503    0.3278    1.8159 H   0  0  0  0  0  0  0  0  0  0  0  0
   -2.6275   -2.7414    0.2623 H   0  0  0  0  0  0  0  0  0  0  0  0
   -1.6635   -2.0666    1.5966 H   0  0  0  0  0  0  0  0  0  0  0  0
   -0.2997   -3.4853    0.0452 H   0  0  0  0  0  0  0  0  0  0  0  0
   -0.7025   -2.4208   -1.3285 H   0  0  0  0  0  0  0  0  0  0  0  0
    1.0702   -2.5979    1.9884 H   0  0  0  0  0  0  0  0  0  0  0  0
    2.9280   -1.0726    2.6389 H   0  0  0  0  0  0  0  0  0  0  0  0
    3.4633    3.0671    0.4050 H   0  0  0  0  0  0  0  0  0  0  0  0
    4.6539    2.0325   -0.4998 H   0  0  0  0  0  0  0  0  0  0  0  0
    2.9493    1.3364   -1.9521 H   0  0  0  0  0  0  0  0  0  0  0  0
    1.7497    2.3692   -1.0350 H   0  0  0  0  0  0  0  0  0  0  0  0
    0.4288   -0.2469   -1.5978 H   0  0  0  0  0  0  0  0  0  0  0  0
  1  2  1  0
  2  3  2  0
  3  4  1  0
  4  5  2  0
  5  6  1  0
  6  7  2  0
  7  8  1  0
  8  9  1  0
  9 10  1  0
 10 11  1  0
 11 12  2  0
 12 13  1  0
 13 14  1  0
 14 15  1  0
 15 16  1  0
 16 17  1  0
 17 18  1  0
  7  2  1  0
 17 13  2  0
 18 10  2  0
  3 19  1  0
  4 20  1  0
  5 21  1  0
  6 22  1  0
  8 23  1  0
  8 24  1  0
  9 25  1  0
  9 26  1  0
 11 27  1  0
 12 28  1  0
 15 29  1  0
 15 30  1  0
 16 31  1  0
 16 32  1  0
 18 33  1  0
M  RAD  1   1   3
M  END
$$$$
