
     RDKit          3D

 33 35  0  0  0  0  0  0  0  0999 V2000
   -3.2880   -2.2003    0.4689 N   0  0  0  0  0  1  0  0  0  0  0  0
   -3.7162   -0.8733    0.1698 C   0  0  0  0  0  0  0  0  0  0  0  0
   -5.0551   -0.5238    0.3830 C   0  0  0  0  0  0  0  0  0  0  0  0
   -5.4959    0.7738    0.1123 C   0  0  0  0  0  0  0  0  0  0  0  0
   -4.5998    1.7305   -0.3684 C   0  0  0  0  0  0  0  0  0  0  0  0
   -3.2615    1.3910   -0.5846 C   0  0  0  0  0  0  0  0  0  0  0  0
   -2.8082    0.0846   -0.3307 C   0  0  0  0  0  0  0  0  0  0  0  0
   -1.3519   -0.2501   -0.5403 C   0  0  0  0  0  0  0  0  0  0  0  0
   -0.5587   -0.0403    0.7530 C   0  0  0  0  0  0  0  0  0  0  0  0
    0.8924   -0.3771    0.5432 C   0  0  0  0  0  0  0  0  0  0  0  0
    1.3511   -1.7021    0.7379 C   0  0  0  0  0  0  0  0  0  0  0  0
    2.6978   -2.0290    0.5099 C   0  0  0  0  0  0  0  0  0  0  0  0
    3.5576   -1.0212    0.0804 C   0  0  0  0  0  0  0  0  0  0  0  0
    4.9007   -1.1466   -0.1980 O   0  0  0  0  0  0  0  0  0  0  0  0
    5.4353    0.1093   -0.6170 C   0  0  0  0  0  0  0  0  0  0  0  0
    4.2508    1.1069   -0.5833 C   0  0  0  0  0  0  0  0  0  0  0  0
    3.1236    0.2563   -0.1209 C   0  0  0  0  0  0  0  0  0  0  0  0
    1.7926    0.6134    0.0960 C   0  0  0  0  0  0  0  0  0  0  0  0
   -5.7549   -1.2577    0.7629 H   0  0  0  0  0  0  0  0  0  0  0  0
   -6.5317    1.0393    0.2802 H   0  0  0  0  0  0  0  0  0  0  0  0
   -4.9415    2.7374   -0.5707 H   0  0  0  0  0  0  0  0  0  0  0  0
   -2.5774    2.1476   -0.9489 H   0  0  0  0  0  0  0  0  0  0  0  0
   -0.9287    0.3929   -1.3438 H   0  0  0  0  0  0  0  0  0  0  0  0
   -1.2472   -1.3028   -0.8826 H   0  0  0  0  0  0  0  0  0  0  0  0
   -0.6552    1.0175    1.0840 H   0  0  0  0  0  0  0  0  0  0  0  0
   -0.9788   -0.6792    1.5608 H   0  0  0  0  0  0  0  0  0  0  0  0
    0.6659   -2.4755    1.0621 H   0  0  0  0  0  0  0  0  0  0  0  0
    3.0574   -3.0387    0.6591 H   0  0  0  0  0  0  0  0  0  0  0  0
    6.2381    0.4268    0.0821 H   0  0  0  0  0  0  0  0  0  0  0  0
    5.8449    0.0180   -1.6455 H   0  0  0  0  0  0  0  0  0  0  0  0
    4.0395    1.5132   -1.5956 H   0  0  0  0  0  0  0  0  0  0  0  0
    4.4385    1.9288    0.1405 H   0  0  0  0  0  0  0  0  0  0  0  0
    1.4646    1.6304   -0.0797 H   0  0  0  0  0  0  0  0  0  0  0  0
  1  2  1  0
  2  3  2  0
  3  4  1  0
  4  5  2  0
  5  6  1  0
  6  7  2  0
  7  8  1  0
  8  9  1  0
  9 10  1  0
 10 11  1  0
 11 12  2  0
 12 13  1  0
 13 14  1  0
 14 15  1  0
 15 16  1  0
 16 17  1  0
 17 18  1  0
  7  2  1  0
 17 13  2  0
 18 10  2  0
  3 19  1  0
  4 20  1  0
  5 21  1  0
  6 22  1  0
  8 23  1  0
  8 24  1  0
  9 25  1  0
  9 26  1  0
 11 27  1  0
 12 28  1  0
 15 29  1  0
 15 30  1  0
 16 31  1  0
 16 32  1  0
 18 33  1  0
M  RAD  1   1   3
M  END
$$$$
