
     RDKit          3D

 33 35  0  0  0  0  0  0  0  0999 V2000
   -3.0870    2.4740    0.2040 N   0  0  0  0  0  1  0  0  0  0  0  0
   -3.6266    1.1543    0.1720 C   0  0  0  0  0  0  0  0  0  0  0  0
   -4.9748    0.9601    0.4963 C   0  0  0  0  0  0  0  0  0  0  0  0
   -5.5232   -0.3246    0.4873 C   0  0  0  0  0  0  0  0  0  0  0  0
   -4.7260   -1.4227    0.1586 C   0  0  0  0  0  0  0  0  0  0  0  0
   -3.3795   -1.2389   -0.1667 C   0  0  0  0  0  0  0  0  0  0  0  0
   -2.8188    0.0504   -0.1762 C   0  0  0  0  0  0  0  0  0  0  0  0
   -1.3546    0.2211   -0.4986 C   0  0  0  0  0  0  0  0  0  0  0  0
   -0.5129    0.1856    0.7804 C   0  0  0  0  0  0  0  0  0  0  0  0
    0.9461    0.3588    0.4576 C   0  0  0  0  0  0  0  0  0  0  0  0
    1.5105    1.6551    0.3862 C   0  0  0  0  0  0  0  0  0  0  0  0
    2.8640    1.8238    0.0512 C   0  0  0  0  0  0  0  0  0  0  0  0
    3.6239    0.6878   -0.2162 C   0  0  0  0  0  0  0  0  0  0  0  0
    4.9563    0.6502   -0.5632 O   0  0  0  0  0  0  0  0  0  0  0  0
    5.3746   -0.7003   -0.7621 C   0  0  0  0  0  0  0  0  0  0  0  0
    4.1234   -1.5749   -0.4998 C   0  0  0  0  0  0  0  0  0  0  0  0
    3.0872   -0.5651   -0.1609 C   0  0  0  0  0  0  0  0  0  0  0  0
    1.7467   -0.7667    0.1681 C   0  0  0  0  0  0  0  0  0  0  0  0
   -5.5980    1.8055    0.7598 H   0  0  0  0  0  0  0  0  0  0  0  0
   -6.5656   -0.4695    0.7402 H   0  0  0  0  0  0  0  0  0  0  0  0
   -5.1509   -2.4182    0.1592 H   0  0  0  0  0  0  0  0  0  0  0  0
   -2.7727   -2.1024   -0.4100 H   0  0  0  0  0  0  0  0  0  0  0  0
   -1.1907    1.1820   -1.0336 H   0  0  0  0  0  0  0  0  0  0  0  0
   -1.0222   -0.5896   -1.1845 H   0  0  0  0  0  0  0  0  0  0  0  0
   -0.8424    0.9928    1.4711 H   0  0  0  0  0  0  0  0  0  0  0  0
   -0.6697   -0.7829    1.3050 H   0  0  0  0  0  0  0  0  0  0  0  0
    0.9018    2.5280    0.5870 H   0  0  0  0  0  0  0  0  0  0  0  0
    3.3041    2.8109   -0.0028 H   0  0  0  0  0  0  0  0  0  0  0  0
    6.1871   -0.9501   -0.0469 H   0  0  0  0  0  0  0  0  0  0  0  0
    5.7358   -0.8313   -1.8044 H   0  0  0  0  0  0  0  0  0  0  0  0
    3.8305   -2.1397   -1.4106 H   0  0  0  0  0  0  0  0  0  0  0  0
    4.2874   -2.2641    0.3562 H   0  0  0  0  0  0  0  0  0  0  0  0
    1.3361   -1.7684    0.1962 H   0  0  0  0  0  0  0  0  0  0  0  0
  1  2  1  0
  2  3  2  0
  3  4  1  0
  4  5  2  0
  5  6  1  0
  6  7  2  0
  7  8  1  0
  8  9  1  0
  9 10  1  0
 10 11  1  0
 11 12  2  0
 12 13  1  0
 13 14  1  0
 14 15  1  0
 15 16  1  0
 16 17  1  0
 17 18  1  0
  7  2  1  0
 17 13  2  0
 18 10  2  0
  3 19  1  0
  4 20  1  0
  5 21  1  0
  6 22  1  0
  8 23  1  0
  8 24  1  0
  9 25  1  0
  9 26  1  0
 11 27  1  0
 12 28  1  0
 15 29  1  0
 15 30  1  0
 16 31  1  0
 16 32  1  0
 18 33  1  0
M  RAD  1   1   3
M  END
$$$$
