
     RDKit          3D

 33 35  0  0  0  0  0  0  0  0999 V2000
   -2.9942   -2.2755    1.7254 N   0  0  0  0  0  1  0  0  0  0  0  0
   -2.7900   -0.9544    1.2290 C   0  0  0  0  0  0  0  0  0  0  0  0
   -3.1471    0.1381    2.0285 C   0  0  0  0  0  0  0  0  0  0  0  0
   -2.9447    1.4421    1.5704 C   0  0  0  0  0  0  0  0  0  0  0  0
   -2.3844    1.6614    0.3107 C   0  0  0  0  0  0  0  0  0  0  0  0
   -2.0276    0.5776   -0.4955 C   0  0  0  0  0  0  0  0  0  0  0  0
   -2.2306   -0.7404   -0.0487 C   0  0  0  0  0  0  0  0  0  0  0  0
   -1.7840   -1.8972   -0.9136 C   0  0  0  0  0  0  0  0  0  0  0  0
   -0.4008   -2.4202   -0.5000 C   0  0  0  0  0  0  0  0  0  0  0  0
    0.6690   -1.3757   -0.6880 C   0  0  0  0  0  0  0  0  0  0  0  0
    1.2296   -1.1542   -1.9685 C   0  0  0  0  0  0  0  0  0  0  0  0
    2.1831   -0.1412   -2.1618 C   0  0  0  0  0  0  0  0  0  0  0  0
    2.5491    0.6376   -1.0668 C   0  0  0  0  0  0  0  0  0  0  0  0
    3.4508    1.6787   -1.0601 O   0  0  0  0  0  0  0  0  0  0  0  0
    3.5472    2.2370    0.2505 C   0  0  0  0  0  0  0  0  0  0  0  0
    2.5720    1.4189    1.1329 C   0  0  0  0  0  0  0  0  0  0  0  0
    2.0115    0.4357    0.1703 C   0  0  0  0  0  0  0  0  0  0  0  0
    1.0654   -0.5633    0.3962 C   0  0  0  0  0  0  0  0  0  0  0  0
   -3.5778   -0.0232    3.0088 H   0  0  0  0  0  0  0  0  0  0  0  0
   -3.2193    2.2832    2.1938 H   0  0  0  0  0  0  0  0  0  0  0  0
   -2.2218    2.6724   -0.0399 H   0  0  0  0  0  0  0  0  0  0  0  0
   -1.5805    0.7659   -1.4640 H   0  0  0  0  0  0  0  0  0  0  0  0
   -1.7622   -1.5954   -1.9841 H   0  0  0  0  0  0  0  0  0  0  0  0
   -2.5212   -2.7254   -0.8387 H   0  0  0  0  0  0  0  0  0  0  0  0
   -0.4267   -2.7613    0.5580 H   0  0  0  0  0  0  0  0  0  0  0  0
   -0.1552   -3.3117   -1.1170 H   0  0  0  0  0  0  0  0  0  0  0  0
    0.9205   -1.7590   -2.8118 H   0  0  0  0  0  0  0  0  0  0  0  0
    2.6154    0.0360   -3.1378 H   0  0  0  0  0  0  0  0  0  0  0  0
    3.2520    3.3076    0.2246 H   0  0  0  0  0  0  0  0  0  0  0  0
    4.5896    2.1419    0.6225 H   0  0  0  0  0  0  0  0  0  0  0  0
    3.1122    0.8960    1.9509 H   0  0  0  0  0  0  0  0  0  0  0  0
    1.7642    2.0631    1.5418 H   0  0  0  0  0  0  0  0  0  0  0  0
    0.6365   -0.6952    1.3818 H   0  0  0  0  0  0  0  0  0  0  0  0
  1  2  1  0
  2  3  2  0
  3  4  1  0
  4  5  2  0
  5  6  1  0
  6  7  2  0
  7  8  1  0
  8  9  1  0
  9 10  1  0
 10 11  1  0
 11 12  2  0
 12 13  1  0
 13 14  1  0
 14 15  1  0
 15 16  1  0
 16 17  1  0
 17 18  1  0
  7  2  1  0
 17 13  2  0
 18 10  2  0
  3 19  1  0
  4 20  1  0
  5 21  1  0
  6 22  1  0
  8 23  1  0
  8 24  1  0
  9 25  1  0
  9 26  1  0
 11 27  1  0
 12 28  1  0
 15 29  1  0
 15 30  1  0
 16 31  1  0
 16 32  1  0
 18 33  1  0
M  RAD  1   1   3
M  END
$$$$
