
     RDKit          3D

 33 35  0  0  0  0  0  0  0  0999 V2000
   -2.3445   -1.0169    3.1388 N   0  0  0  0  0  1  0  0  0  0  0  0
   -2.4215   -0.2234    1.9565 C   0  0  0  0  0  0  0  0  0  0  0  0
   -2.8478    1.1066    2.0535 C   0  0  0  0  0  0  0  0  0  0  0  0
   -2.9189    1.9084    0.9118 C   0  0  0  0  0  0  0  0  0  0  0  0
   -2.5643    1.3853   -0.3330 C   0  0  0  0  0  0  0  0  0  0  0  0
   -2.1404    0.0584   -0.4402 C   0  0  0  0  0  0  0  0  0  0  0  0
   -2.0691   -0.7614    0.7004 C   0  0  0  0  0  0  0  0  0  0  0  0
   -1.5529   -2.1764    0.5696 C   0  0  0  0  0  0  0  0  0  0  0  0
   -0.0623   -2.2766    0.9245 C   0  0  0  0  0  0  0  0  0  0  0  0
    0.7916   -1.4760   -0.0245 C   0  0  0  0  0  0  0  0  0  0  0  0
    1.1437   -2.0094   -1.2873 C   0  0  0  0  0  0  0  0  0  0  0  0
    1.8882   -1.2443   -2.1998 C   0  0  0  0  0  0  0  0  0  0  0  0
    2.2575    0.0469   -1.8311 C   0  0  0  0  0  0  0  0  0  0  0  0
    2.9719    0.9483   -2.5888 O   0  0  0  0  0  0  0  0  0  0  0  0
    3.1401    2.1703   -1.8699 C   0  0  0  0  0  0  0  0  0  0  0  0
    2.4292    1.9635   -0.5095 C   0  0  0  0  0  0  0  0  0  0  0  0
    1.9194    0.5723   -0.6187 C   0  0  0  0  0  0  0  0  0  0  0  0
    1.1838   -0.1621    0.3108 C   0  0  0  0  0  0  0  0  0  0  0  0
   -3.1201    1.5216    3.0158 H   0  0  0  0  0  0  0  0  0  0  0  0
   -3.2458    2.9370    0.9928 H   0  0  0  0  0  0  0  0  0  0  0  0
   -2.6133    2.0100   -1.2155 H   0  0  0  0  0  0  0  0  0  0  0  0
   -1.8551   -0.3268   -1.4114 H   0  0  0  0  0  0  0  0  0  0  0  0
   -2.1305   -2.8478    1.2407 H   0  0  0  0  0  0  0  0  0  0  0  0
   -1.7148   -2.5544   -0.4640 H   0  0  0  0  0  0  0  0  0  0  0  0
    0.1006   -1.9380    1.9710 H   0  0  0  0  0  0  0  0  0  0  0  0
    0.2453   -3.3441    0.8828 H   0  0  0  0  0  0  0  0  0  0  0  0
    0.8334   -3.0095   -1.5631 H   0  0  0  0  0  0  0  0  0  0  0  0
    2.1601   -1.6438   -3.1680 H   0  0  0  0  0  0  0  0  0  0  0  0
    4.2225    2.3722   -1.7223 H   0  0  0  0  0  0  0  0  0  0  0  0
    2.6742    3.0053   -2.4354 H   0  0  0  0  0  0  0  0  0  0  0  0
    1.5853    2.6757   -0.3852 H   0  0  0  0  0  0  0  0  0  0  0  0
    3.1455    2.0488    0.3356 H   0  0  0  0  0  0  0  0  0  0  0  0
    0.9092    0.2800    1.2605 H   0  0  0  0  0  0  0  0  0  0  0  0
  1  2  1  0
  2  3  2  0
  3  4  1  0
  4  5  2  0
  5  6  1  0
  6  7  2  0
  7  8  1  0
  8  9  1  0
  9 10  1  0
 10 11  1  0
 11 12  2  0
 12 13  1  0
 13 14  1  0
 14 15  1  0
 15 16  1  0
 16 17  1  0
 17 18  1  0
  7  2  1  0
 17 13  2  0
 18 10  2  0
  3 19  1  0
  4 20  1  0
  5 21  1  0
  6 22  1  0
  8 23  1  0
  8 24  1  0
  9 25  1  0
  9 26  1  0
 11 27  1  0
 12 28  1  0
 15 29  1  0
 15 30  1  0
 16 31  1  0
 16 32  1  0
 18 33  1  0
M  RAD  1   1   3
M  END
$$$$
