
     RDKit          3D

 33 35  0  0  0  0  0  0  0  0999 V2000
   -3.1909   -2.6317   -0.4157 N   0  0  0  0  0  1  0  0  0  0  0  0
   -2.8876   -1.3823    0.2010 C   0  0  0  0  0  0  0  0  0  0  0  0
   -3.2070   -1.1918    1.5508 C   0  0  0  0  0  0  0  0  0  0  0  0
   -2.9080    0.0184    2.1813 C   0  0  0  0  0  0  0  0  0  0  0  0
   -2.2882    1.0447    1.4662 C   0  0  0  0  0  0  0  0  0  0  0  0
   -1.9683    0.8651    0.1181 C   0  0  0  0  0  0  0  0  0  0  0  0
   -2.2683   -0.3464   -0.5303 C   0  0  0  0  0  0  0  0  0  0  0  0
   -1.8611   -0.5396   -1.9734 C   0  0  0  0  0  0  0  0  0  0  0  0
   -0.5291   -1.2937   -2.0959 C   0  0  0  0  0  0  0  0  0  0  0  0
    0.6089   -0.5175   -1.4851 C   0  0  0  0  0  0  0  0  0  0  0  0
    1.2301    0.5254   -2.2129 C   0  0  0  0  0  0  0  0  0  0  0  0
    2.2505    1.2918   -1.6264 C   0  0  0  0  0  0  0  0  0  0  0  0
    2.6218    1.0031   -0.3156 C   0  0  0  0  0  0  0  0  0  0  0  0
    3.5847    1.6471    0.4294 O   0  0  0  0  0  0  0  0  0  0  0  0
    3.6656    1.0696    1.7327 C   0  0  0  0  0  0  0  0  0  0  0  0
    2.6094   -0.0630    1.7611 C   0  0  0  0  0  0  0  0  0  0  0  0
    2.0265    0.0035    0.3962 C   0  0  0  0  0  0  0  0  0  0  0  0
    1.0131   -0.7777   -0.1579 C   0  0  0  0  0  0  0  0  0  0  0  0
   -3.6835   -1.9844    2.1140 H   0  0  0  0  0  0  0  0  0  0  0  0
   -3.1539    0.1592    3.2258 H   0  0  0  0  0  0  0  0  0  0  0  0
   -2.0509    1.9792    1.9580 H   0  0  0  0  0  0  0  0  0  0  0  0
   -1.4743    1.6664   -0.4176 H   0  0  0  0  0  0  0  0  0  0  0  0
   -1.7804    0.4431   -2.4886 H   0  0  0  0  0  0  0  0  0  0  0  0
   -2.6499   -1.1089   -2.5107 H   0  0  0  0  0  0  0  0  0  0  0  0
   -0.3155   -1.4717   -3.1723 H   0  0  0  0  0  0  0  0  0  0  0  0
   -0.6158   -2.2939   -1.6179 H   0  0  0  0  0  0  0  0  0  0  0  0
    0.9166    0.7463   -3.2255 H   0  0  0  0  0  0  0  0  0  0  0  0
    2.7294    2.0921   -2.1751 H   0  0  0  0  0  0  0  0  0  0  0  0
    4.6854    0.6617    1.8993 H   0  0  0  0  0  0  0  0  0  0  0  0
    3.4376    1.8406    2.4993 H   0  0  0  0  0  0  0  0  0  0  0  0
    3.0853   -1.0523    1.9319 H   0  0  0  0  0  0  0  0  0  0  0  0
    1.8277    0.1363    2.5254 H   0  0  0  0  0  0  0  0  0  0  0  0
    0.5400   -1.5542    0.4303 H   0  0  0  0  0  0  0  0  0  0  0  0
  1  2  1  0
  2  3  2  0
  3  4  1  0
  4  5  2  0
  5  6  1  0
  6  7  2  0
  7  8  1  0
  8  9  1  0
  9 10  1  0
 10 11  1  0
 11 12  2  0
 12 13  1  0
 13 14  1  0
 14 15  1  0
 15 16  1  0
 16 17  1  0
 17 18  1  0
  7  2  1  0
 17 13  2  0
 18 10  2  0
  3 19  1  0
  4 20  1  0
  5 21  1  0
  6 22  1  0
  8 23  1  0
  8 24  1  0
  9 25  1  0
  9 26  1  0
 11 27  1  0
 12 28  1  0
 15 29  1  0
 15 30  1  0
 16 31  1  0
 16 32  1  0
 18 33  1  0
M  RAD  1   1   3
M  END
$$$$
