
     RDKit          3D

 33 35  0  0  0  0  0  0  0  0999 V2000
   -3.2200   -2.3421    0.1744 N   0  0  0  0  0  1  0  0  0  0  0  0
   -3.6826   -0.9937    0.2112 C   0  0  0  0  0  0  0  0  0  0  0  0
   -5.0453   -0.7343    0.0206 C   0  0  0  0  0  0  0  0  0  0  0  0
   -5.5211    0.5790    0.0368 C   0  0  0  0  0  0  0  0  0  0  0  0
   -4.6368    1.6405    0.2388 C   0  0  0  0  0  0  0  0  0  0  0  0
   -3.2751    1.3915    0.4301 C   0  0  0  0  0  0  0  0  0  0  0  0
   -2.7855    0.0736    0.4313 C   0  0  0  0  0  0  0  0  0  0  0  0
   -1.3066   -0.1691    0.6070 C   0  0  0  0  0  0  0  0  0  0  0  0
   -0.6035   -0.2232   -0.7525 C   0  0  0  0  0  0  0  0  0  0  0  0
    0.8702   -0.4680   -0.5758 C   0  0  0  0  0  0  0  0  0  0  0  0
    1.3697   -1.7910   -0.5132 C   0  0  0  0  0  0  0  0  0  0  0  0
    2.7401   -2.0250   -0.3136 C   0  0  0  0  0  0  0  0  0  0  0  0
    3.5829   -0.9257   -0.1701 C   0  0  0  0  0  0  0  0  0  0  0  0
    4.9445   -0.9521    0.0357 O   0  0  0  0  0  0  0  0  0  0  0  0
    5.4522    0.3784    0.1382 C   0  0  0  0  0  0  0  0  0  0  0  0
    4.2283    1.3132   -0.0269 C   0  0  0  0  0  0  0  0  0  0  0  0
    3.1103    0.3531   -0.2178 C   0  0  0  0  0  0  0  0  0  0  0  0
    1.7551    0.6194   -0.4141 C   0  0  0  0  0  0  0  0  0  0  0  0
   -5.7366   -1.5513   -0.1443 H   0  0  0  0  0  0  0  0  0  0  0  0
   -6.5752    0.7743   -0.1124 H   0  0  0  0  0  0  0  0  0  0  0  0
   -5.0062    2.6578    0.2438 H   0  0  0  0  0  0  0  0  0  0  0  0
   -2.6013    2.2268    0.5760 H   0  0  0  0  0  0  0  0  0  0  0  0
   -1.1383   -1.1197    1.1588 H   0  0  0  0  0  0  0  0  0  0  0  0
   -0.8614    0.6435    1.2231 H   0  0  0  0  0  0  0  0  0  0  0  0
   -1.0461   -1.0326   -1.3739 H   0  0  0  0  0  0  0  0  0  0  0  0
   -0.7632    0.7350   -1.2950 H   0  0  0  0  0  0  0  0  0  0  0  0
    0.6980   -2.6342   -0.6163 H   0  0  0  0  0  0  0  0  0  0  0  0
    3.1307   -3.0331   -0.2674 H   0  0  0  0  0  0  0  0  0  0  0  0
    5.9276    0.5228    1.1318 H   0  0  0  0  0  0  0  0  0  0  0  0
    6.1970    0.5583   -0.6662 H   0  0  0  0  0  0  0  0  0  0  0  0
    4.3375    1.9637   -0.9211 H   0  0  0  0  0  0  0  0  0  0  0  0
    4.0631    1.9233    0.8869 H   0  0  0  0  0  0  0  0  0  0  0  0
    1.3974    1.6412   -0.4382 H   0  0  0  0  0  0  0  0  0  0  0  0
  1  2  1  0
  2  3  2  0
  3  4  1  0
  4  5  2  0
  5  6  1  0
  6  7  2  0
  7  8  1  0
  8  9  1  0
  9 10  1  0
 10 11  1  0
 11 12  2  0
 12 13  1  0
 13 14  1  0
 14 15  1  0
 15 16  1  0
 16 17  1  0
 17 18  1  0
  7  2  1  0
 17 13  2  0
 18 10  2  0
  3 19  1  0
  4 20  1  0
  5 21  1  0
  6 22  1  0
  8 23  1  0
  8 24  1  0
  9 25  1  0
  9 26  1  0
 11 27  1  0
 12 28  1  0
 15 29  1  0
 15 30  1  0
 16 31  1  0
 16 32  1  0
 18 33  1  0
M  RAD  1   1   3
M  END
$$$$
