
     RDKit          3D

 33 35  0  0  0  0  0  0  0  0999 V2000
    3.6292   -0.3275   -1.9658 N   0  0  0  0  0  1  0  0  0  0  0  0
    3.1120    0.1252   -0.7164 C   0  0  0  0  0  0  0  0  0  0  0  0
    3.4680    1.3967   -0.2506 C   0  0  0  0  0  0  0  0  0  0  0  0
    2.9641    1.8684    0.9638 C   0  0  0  0  0  0  0  0  0  0  0  0
    2.1016    1.0720    1.7194 C   0  0  0  0  0  0  0  0  0  0  0  0
    1.7429   -0.1992    1.2642 C   0  0  0  0  0  0  0  0  0  0  0  0
    2.2471   -0.6886    0.0458 C   0  0  0  0  0  0  0  0  0  0  0  0
    1.8001   -2.0433   -0.4549 C   0  0  0  0  0  0  0  0  0  0  0  0
    0.6486   -1.9287   -1.4643 C   0  0  0  0  0  0  0  0  0  0  0  0
   -0.5856   -1.3342   -0.8368 C   0  0  0  0  0  0  0  0  0  0  0  0
   -1.4536   -2.1454   -0.0676 C   0  0  0  0  0  0  0  0  0  0  0  0
   -2.5725   -1.5844    0.5697 C   0  0  0  0  0  0  0  0  0  0  0  0
   -2.7937   -0.2165    0.4307 C   0  0  0  0  0  0  0  0  0  0  0  0
   -3.8212    0.5132    0.9865 O   0  0  0  0  0  0  0  0  0  0  0  0
   -3.6994    1.8887    0.6237 C   0  0  0  0  0  0  0  0  0  0  0  0
   -2.4315    1.9835   -0.2608 C   0  0  0  0  0  0  0  0  0  0  0  0
   -1.9609    0.5750   -0.3043 C   0  0  0  0  0  0  0  0  0  0  0  0
   -0.8438    0.0488   -0.9519 C   0  0  0  0  0  0  0  0  0  0  0  0
    4.1327    2.0227   -0.8327 H   0  0  0  0  0  0  0  0  0  0  0  0
    3.2397    2.8534    1.3177 H   0  0  0  0  0  0  0  0  0  0  0  0
    1.7065    1.4418    2.6567 H   0  0  0  0  0  0  0  0  0  0  0  0
    1.0611   -0.7979    1.8558 H   0  0  0  0  0  0  0  0  0  0  0  0
    2.6550   -2.5629   -0.9387 H   0  0  0  0  0  0  0  0  0  0  0  0
    1.4854   -2.6869    0.3961 H   0  0  0  0  0  0  0  0  0  0  0  0
    0.4103   -2.9426   -1.8530 H   0  0  0  0  0  0  0  0  0  0  0  0
    0.9705   -1.3197   -2.3372 H   0  0  0  0  0  0  0  0  0  0  0  0
   -1.2562   -3.2043    0.0430 H   0  0  0  0  0  0  0  0  0  0  0  0
   -3.2401   -2.1970    1.1611 H   0  0  0  0  0  0  0  0  0  0  0  0
   -4.6001    2.2080    0.0572 H   0  0  0  0  0  0  0  0  0  0  0  0
   -3.5894    2.5094    1.5385 H   0  0  0  0  0  0  0  0  0  0  0  0
   -1.6623    2.6337    0.2087 H   0  0  0  0  0  0  0  0  0  0  0  0
   -2.6802    2.3411   -1.2829 H   0  0  0  0  0  0  0  0  0  0  0  0
   -0.1843    0.6974   -1.5150 H   0  0  0  0  0  0  0  0  0  0  0  0
  1  2  1  0
  2  3  2  0
  3  4  1  0
  4  5  2  0
  5  6  1  0
  6  7  2  0
  7  8  1  0
  8  9  1  0
  9 10  1  0
 10 11  1  0
 11 12  2  0
 12 13  1  0
 13 14  1  0
 14 15  1  0
 15 16  1  0
 16 17  1  0
 17 18  1  0
  7  2  1  0
 17 13  2  0
 18 10  2  0
  3 19  1  0
  4 20  1  0
  5 21  1  0
  6 22  1  0
  8 23  1  0
  8 24  1  0
  9 25  1  0
  9 26  1  0
 11 27  1  0
 12 28  1  0
 15 29  1  0
 15 30  1  0
 16 31  1  0
 16 32  1  0
 18 33  1  0
M  RAD  1   1   3
M  END
$$$$
