
     RDKit          3D

 33 35  0  0  0  0  0  0  0  0999 V2000
   -3.0867    0.0470    2.5301 N   0  0  0  0  0  1  0  0  0  0  0  0
   -3.6248   -0.0906    1.2167 C   0  0  0  0  0  0  0  0  0  0  0  0
   -4.9965    0.1064    1.0169 C   0  0  0  0  0  0  0  0  0  0  0  0
   -5.5454   -0.0074   -0.2626 C   0  0  0  0  0  0  0  0  0  0  0  0
   -4.7254   -0.3141   -1.3502 C   0  0  0  0  0  0  0  0  0  0  0  0
   -3.3551   -0.5128   -1.1608 C   0  0  0  0  0  0  0  0  0  0  0  0
   -2.7925   -0.4161    0.1240 C   0  0  0  0  0  0  0  0  0  0  0  0
   -1.3054   -0.6022    0.2995 C   0  0  0  0  0  0  0  0  0  0  0  0
   -0.5783    0.7422    0.2021 C   0  0  0  0  0  0  0  0  0  0  0  0
    0.9037    0.5554    0.3801 C   0  0  0  0  0  0  0  0  0  0  0  0
    1.4754    0.5911    1.6746 C   0  0  0  0  0  0  0  0  0  0  0  0
    2.8534    0.3828    1.8493 C   0  0  0  0  0  0  0  0  0  0  0  0
    3.6308    0.1321    0.7213 C   0  0  0  0  0  0  0  0  0  0  0  0
    4.9882   -0.0992    0.6906 O   0  0  0  0  0  0  0  0  0  0  0  0
    5.4188   -0.3210   -0.6525 C   0  0  0  0  0  0  0  0  0  0  0  0
    4.1473   -0.2075   -1.5298 C   0  0  0  0  0  0  0  0  0  0  0  0
    3.0882    0.0847   -0.5293 C   0  0  0  0  0  0  0  0  0  0  0  0
    1.7235    0.2868   -0.7367 C   0  0  0  0  0  0  0  0  0  0  0  0
   -5.6382    0.3522    1.8539 H   0  0  0  0  0  0  0  0  0  0  0  0
   -6.6062    0.1473   -0.4118 H   0  0  0  0  0  0  0  0  0  0  0  0
   -5.1512   -0.3948   -2.3420 H   0  0  0  0  0  0  0  0  0  0  0  0
   -2.7316   -0.7407   -2.0166 H   0  0  0  0  0  0  0  0  0  0  0  0
   -0.9165   -1.2920   -0.4822 H   0  0  0  0  0  0  0  0  0  0  0  0
   -1.0931   -1.0776    1.2820 H   0  0  0  0  0  0  0  0  0  0  0  0
   -0.9647    1.4370    0.9801 H   0  0  0  0  0  0  0  0  0  0  0  0
   -0.7826    1.2076   -0.7876 H   0  0  0  0  0  0  0  0  0  0  0  0
    0.8539    0.7769    2.5416 H   0  0  0  0  0  0  0  0  0  0  0  0
    3.2991    0.4112    2.8349 H   0  0  0  0  0  0  0  0  0  0  0  0
    5.8691   -1.3328   -0.7397 H   0  0  0  0  0  0  0  0  0  0  0  0
    6.1654    0.4502   -0.9389 H   0  0  0  0  0  0  0  0  0  0  0  0
    4.2345    0.6279   -2.2571 H   0  0  0  0  0  0  0  0  0  0  0  0
    3.9334   -1.1646   -2.0520 H   0  0  0  0  0  0  0  0  0  0  0  0
    1.3095    0.2344   -1.7360 H   0  0  0  0  0  0  0  0  0  0  0  0
  1  2  1  0
  2  3  2  0
  3  4  1  0
  4  5  2  0
  5  6  1  0
  6  7  2  0
  7  8  1  0
  8  9  1  0
  9 10  1  0
 10 11  1  0
 11 12  2  0
 12 13  1  0
 13 14  1  0
 14 15  1  0
 15 16  1  0
 16 17  1  0
 17 18  1  0
  7  2  1  0
 17 13  2  0
 18 10  2  0
  3 19  1  0
  4 20  1  0
  5 21  1  0
  6 22  1  0
  8 23  1  0
  8 24  1  0
  9 25  1  0
  9 26  1  0
 11 27  1  0
 12 28  1  0
 15 29  1  0
 15 30  1  0
 16 31  1  0
 16 32  1  0
 18 33  1  0
M  RAD  1   1   3
M  END
$$$$
