
     RDKit          3D

 33 35  0  0  0  0  0  0  0  0999 V2000
   -3.1381   -2.1253   -1.1716 N   0  0  0  0  0  1  0  0  0  0  0  0
   -3.6476   -1.0247   -0.4214 C   0  0  0  0  0  0  0  0  0  0  0  0
   -5.0170   -0.7378   -0.4750 C   0  0  0  0  0  0  0  0  0  0  0  0
   -5.5383    0.3441    0.2386 C   0  0  0  0  0  0  0  0  0  0  0  0
   -4.6930    1.1479    1.0058 C   0  0  0  0  0  0  0  0  0  0  0  0
   -3.3249    0.8694    1.0657 C   0  0  0  0  0  0  0  0  0  0  0  0
   -2.7897   -0.2255    0.3646 C   0  0  0  0  0  0  0  0  0  0  0  0
   -1.3047   -0.4874    0.4178 C   0  0  0  0  0  0  0  0  0  0  0  0
   -0.5900    0.2226   -0.7358 C   0  0  0  0  0  0  0  0  0  0  0  0
    0.8899   -0.0417   -0.6830 C   0  0  0  0  0  0  0  0  0  0  0  0
    1.4346   -1.1740   -1.3350 C   0  0  0  0  0  0  0  0  0  0  0  0
    2.8109   -1.4443   -1.2598 C   0  0  0  0  0  0  0  0  0  0  0  0
    3.6138   -0.5778   -0.5222 C   0  0  0  0  0  0  0  0  0  0  0  0
    4.9739   -0.6775   -0.3294 O   0  0  0  0  0  0  0  0  0  0  0  0
    5.4342    0.3969    0.4906 C   0  0  0  0  0  0  0  0  0  0  0  0
    4.1798    1.2406    0.8278 C   0  0  0  0  0  0  0  0  0  0  0  0
    3.0974    0.5098    0.1190 C   0  0  0  0  0  0  0  0  0  0  0  0
    1.7352    0.8058    0.0644 C   0  0  0  0  0  0  0  0  0  0  0  0
   -5.6783   -1.3517   -1.0737 H   0  0  0  0  0  0  0  0  0  0  0  0
   -6.5974    0.5625    0.1926 H   0  0  0  0  0  0  0  0  0  0  0  0
   -5.0975    1.9901    1.5522 H   0  0  0  0  0  0  0  0  0  0  0  0
   -2.6816    1.5085    1.6580 H   0  0  0  0  0  0  0  0  0  0  0  0
   -1.1075   -1.5807    0.3702 H   0  0  0  0  0  0  0  0  0  0  0  0
   -0.8926   -0.1282    1.3870 H   0  0  0  0  0  0  0  0  0  0  0  0
   -0.7789    1.3174   -0.6761 H   0  0  0  0  0  0  0  0  0  0  0  0
   -0.9996   -0.1310   -1.7077 H   0  0  0  0  0  0  0  0  0  0  0  0
    0.7935   -1.8430   -1.8955 H   0  0  0  0  0  0  0  0  0  0  0  0
    3.2359   -2.3059   -1.7575 H   0  0  0  0  0  0  0  0  0  0  0  0
    6.1784    1.0031   -0.0689 H   0  0  0  0  0  0  0  0  0  0  0  0
    5.8969   -0.0090    1.4154 H   0  0  0  0  0  0  0  0  0  0  0  0
    4.2730    2.2746    0.4320 H   0  0  0  0  0  0  0  0  0  0  0  0
    3.9868    1.2529    1.9220 H   0  0  0  0  0  0  0  0  0  0  0  0
    1.3424    1.6679    0.5890 H   0  0  0  0  0  0  0  0  0  0  0  0
  1  2  1  0
  2  3  2  0
  3  4  1  0
  4  5  2  0
  5  6  1  0
  6  7  2  0
  7  8  1  0
  8  9  1  0
  9 10  1  0
 10 11  1  0
 11 12  2  0
 12 13  1  0
 13 14  1  0
 14 15  1  0
 15 16  1  0
 16 17  1  0
 17 18  1  0
  7  2  1  0
 17 13  2  0
 18 10  2  0
  3 19  1  0
  4 20  1  0
  5 21  1  0
  6 22  1  0
  8 23  1  0
  8 24  1  0
  9 25  1  0
  9 26  1  0
 11 27  1  0
 12 28  1  0
 15 29  1  0
 15 30  1  0
 16 31  1  0
 16 32  1  0
 18 33  1  0
M  RAD  1   1   3
M  END
$$$$
