
     RDKit          3D

 33 35  0  0  0  0  0  0  0  0999 V2000
   -3.2207   -2.2671    0.5665 N   0  0  0  0  0  1  0  0  0  0  0  0
   -3.6850   -0.9387    0.3352 C   0  0  0  0  0  0  0  0  0  0  0  0
   -5.0139   -0.6178    0.6377 C   0  0  0  0  0  0  0  0  0  0  0  0
   -5.4886    0.6801    0.4346 C   0  0  0  0  0  0  0  0  0  0  0  0
   -4.6364    1.6656   -0.0674 C   0  0  0  0  0  0  0  0  0  0  0  0
   -3.3085    1.3549   -0.3724 C   0  0  0  0  0  0  0  0  0  0  0  0
   -2.8222    0.0488   -0.1871 C   0  0  0  0  0  0  0  0  0  0  0  0
   -1.3761   -0.2555   -0.4924 C   0  0  0  0  0  0  0  0  0  0  0  0
   -0.5109   -0.0729    0.7581 C   0  0  0  0  0  0  0  0  0  0  0  0
    0.9298   -0.3799    0.4530 C   0  0  0  0  0  0  0  0  0  0  0  0
    1.4179   -1.7027    0.5781 C   0  0  0  0  0  0  0  0  0  0  0  0
    2.7533   -2.0010    0.2613 C   0  0  0  0  0  0  0  0  0  0  0  0
    3.5719   -0.9667   -0.1855 C   0  0  0  0  0  0  0  0  0  0  0  0
    4.8978   -1.0620   -0.5461 O   0  0  0  0  0  0  0  0  0  0  0  0
    5.3889    0.2146   -0.9554 C   0  0  0  0  0  0  0  0  0  0  0  0
    4.1947    1.1916   -0.8205 C   0  0  0  0  0  0  0  0  0  0  0  0
    3.1088    0.3093   -0.3202 C   0  0  0  0  0  0  0  0  0  0  0  0
    1.7880    0.6383   -0.0144 C   0  0  0  0  0  0  0  0  0  0  0  0
   -5.6793   -1.3744    1.0346 H   0  0  0  0  0  0  0  0  0  0  0  0
   -6.5163    0.9234    0.6714 H   0  0  0  0  0  0  0  0  0  0  0  0
   -5.0040    2.6726   -0.2173 H   0  0  0  0  0  0  0  0  0  0  0  0
   -2.6582    2.1333   -0.7521 H   0  0  0  0  0  0  0  0  0  0  0  0
   -1.0106    0.4188   -1.2985 H   0  0  0  0  0  0  0  0  0  0  0  0
   -1.2767   -1.2954   -0.8735 H   0  0  0  0  0  0  0  0  0  0  0  0
   -0.6027    0.9725    1.1275 H   0  0  0  0  0  0  0  0  0  0  0  0
   -0.8734   -0.7429    1.5686 H   0  0  0  0  0  0  0  0  0  0  0  0
    0.7641   -2.4967    0.9171 H   0  0  0  0  0  0  0  0  0  0  0  0
    3.1352   -3.0089    0.3568 H   0  0  0  0  0  0  0  0  0  0  0  0
    5.7383    0.1618   -2.0086 H   0  0  0  0  0  0  0  0  0  0  0  0
    6.2272    0.5230   -0.2948 H   0  0  0  0  0  0  0  0  0  0  0  0
    3.9182    1.6258   -1.8052 H   0  0  0  0  0  0  0  0  0  0  0  0
    4.4132    1.9936   -0.0831 H   0  0  0  0  0  0  0  0  0  0  0  0
    1.4360    1.6548   -0.1381 H   0  0  0  0  0  0  0  0  0  0  0  0
  1  2  1  0
  2  3  2  0
  3  4  1  0
  4  5  2  0
  5  6  1  0
  6  7  2  0
  7  8  1  0
  8  9  1  0
  9 10  1  0
 10 11  1  0
 11 12  2  0
 12 13  1  0
 13 14  1  0
 14 15  1  0
 15 16  1  0
 16 17  1  0
 17 18  1  0
  7  2  1  0
 17 13  2  0
 18 10  2  0
  3 19  1  0
  4 20  1  0
  5 21  1  0
  6 22  1  0
  8 23  1  0
  8 24  1  0
  9 25  1  0
  9 26  1  0
 11 27  1  0
 12 28  1  0
 15 29  1  0
 15 30  1  0
 16 31  1  0
 16 32  1  0
 18 33  1  0
M  RAD  1   1   3
M  END
$$$$
