
     RDKit          3D

 33 35  0  0  0  0  0  0  0  0999 V2000
   -3.0663   -0.5917   -2.4046 N   0  0  0  0  0  1  0  0  0  0  0  0
   -3.6094   -0.4741   -1.0913 C   0  0  0  0  0  0  0  0  0  0  0  0
   -4.9889   -0.2911   -0.9370 C   0  0  0  0  0  0  0  0  0  0  0  0
   -5.5434   -0.1578    0.3382 C   0  0  0  0  0  0  0  0  0  0  0  0
   -4.7214   -0.2019    1.4660 C   0  0  0  0  0  0  0  0  0  0  0  0
   -3.3434   -0.3844    1.3221 C   0  0  0  0  0  0  0  0  0  0  0  0
   -2.7745   -0.5350    0.0453 C   0  0  0  0  0  0  0  0  0  0  0  0
   -1.2803   -0.6980   -0.0874 C   0  0  0  0  0  0  0  0  0  0  0  0
   -0.6034    0.6636   -0.2707 C   0  0  0  0  0  0  0  0  0  0  0  0
    0.8858    0.4992   -0.4058 C   0  0  0  0  0  0  0  0  0  0  0  0
    1.4662    0.2872   -1.6794 C   0  0  0  0  0  0  0  0  0  0  0  0
    2.8521    0.0986   -1.8068 C   0  0  0  0  0  0  0  0  0  0  0  0
    3.6292    0.1162   -0.6512 C   0  0  0  0  0  0  0  0  0  0  0  0
    4.9938   -0.0531   -0.5729 O   0  0  0  0  0  0  0  0  0  0  0  0
    5.4215    0.0244    0.7871 C   0  0  0  0  0  0  0  0  0  0  0  0
    4.1398    0.2697    1.6215 C   0  0  0  0  0  0  0  0  0  0  0  0
    3.0787    0.3086    0.5820 C   0  0  0  0  0  0  0  0  0  0  0  0
    1.7060    0.4984    0.7427 C   0  0  0  0  0  0  0  0  0  0  0  0
   -5.6325   -0.2481   -1.8069 H   0  0  0  0  0  0  0  0  0  0  0  0
   -6.6103   -0.0152    0.4519 H   0  0  0  0  0  0  0  0  0  0  0  0
   -5.1519   -0.0912    2.4529 H   0  0  0  0  0  0  0  0  0  0  0  0
   -2.7188   -0.4067    2.2067 H   0  0  0  0  0  0  0  0  0  0  0  0
   -0.8728   -1.1960    0.8204 H   0  0  0  0  0  0  0  0  0  0  0  0
   -1.0431   -1.3583   -0.9500 H   0  0  0  0  0  0  0  0  0  0  0  0
   -0.8323    1.3159    0.6010 H   0  0  0  0  0  0  0  0  0  0  0  0
   -1.0085    1.1672   -1.1759 H   0  0  0  0  0  0  0  0  0  0  0  0
    0.8451    0.2662   -2.5663 H   0  0  0  0  0  0  0  0  0  0  0  0
    3.3043   -0.0611   -2.7768 H   0  0  0  0  0  0  0  0  0  0  0  0
    5.9076   -0.9300    1.0822 H   0  0  0  0  0  0  0  0  0  0  0  0
    6.1373    0.8654    0.9076 H   0  0  0  0  0  0  0  0  0  0  0  0
    3.9566   -0.5658    2.3307 H   0  0  0  0  0  0  0  0  0  0  0  0
    4.1907    1.2403    2.1599 H   0  0  0  0  0  0  0  0  0  0  0  0
    1.2863    0.6388    1.7310 H   0  0  0  0  0  0  0  0  0  0  0  0
  1  2  1  0
  2  3  2  0
  3  4  1  0
  4  5  2  0
  5  6  1  0
  6  7  2  0
  7  8  1  0
  8  9  1  0
  9 10  1  0
 10 11  1  0
 11 12  2  0
 12 13  1  0
 13 14  1  0
 14 15  1  0
 15 16  1  0
 16 17  1  0
 17 18  1  0
  7  2  1  0
 17 13  2  0
 18 10  2  0
  3 19  1  0
  4 20  1  0
  5 21  1  0
  6 22  1  0
  8 23  1  0
  8 24  1  0
  9 25  1  0
  9 26  1  0
 11 27  1  0
 12 28  1  0
 15 29  1  0
 15 30  1  0
 16 31  1  0
 16 32  1  0
 18 33  1  0
M  RAD  1   1   3
M  END
$$$$
