
     RDKit          3D

 33 35  0  0  0  0  0  0  0  0999 V2000
   -3.5730   -0.1660   -2.0694 N   0  0  0  0  0  1  0  0  0  0  0  0
   -3.0621    0.3354   -0.8361 C   0  0  0  0  0  0  0  0  0  0  0  0
   -3.3207    1.6645   -0.4799 C   0  0  0  0  0  0  0  0  0  0  0  0
   -2.8200    2.1831    0.7166 C   0  0  0  0  0  0  0  0  0  0  0  0
   -2.0580    1.3763    1.5636 C   0  0  0  0  0  0  0  0  0  0  0  0
   -1.7971    0.0480    1.2181 C   0  0  0  0  0  0  0  0  0  0  0  0
   -2.2995   -0.4884    0.0189 C   0  0  0  0  0  0  0  0  0  0  0  0
   -1.9564   -1.9107   -0.3622 C   0  0  0  0  0  0  0  0  0  0  0  0
   -0.7646   -1.9724   -1.3285 C   0  0  0  0  0  0  0  0  0  0  0  0
    0.4944   -1.4390   -0.6954 C   0  0  0  0  0  0  0  0  0  0  0  0
    1.2601   -2.2599    0.1666 C   0  0  0  0  0  0  0  0  0  0  0  0
    2.4010   -1.7493    0.8070 C   0  0  0  0  0  0  0  0  0  0  0  0
    2.7468   -0.4199    0.5775 C   0  0  0  0  0  0  0  0  0  0  0  0
    3.8144    0.2599    1.1205 O   0  0  0  0  0  0  0  0  0  0  0  0
    3.8272    1.6090    0.6532 C   0  0  0  0  0  0  0  0  0  0  0  0
    2.6043    1.7436   -0.2878 C   0  0  0  0  0  0  0  0  0  0  0  0
    2.0133    0.3812   -0.2475 C   0  0  0  0  0  0  0  0  0  0  0  0
    0.8775   -0.0960   -0.9007 C   0  0  0  0  0  0  0  0  0  0  0  0
   -3.9067    2.2985   -1.1335 H   0  0  0  0  0  0  0  0  0  0  0  0
   -3.0199    3.2123    0.9856 H   0  0  0  0  0  0  0  0  0  0  0  0
   -1.6650    1.7818    2.4869 H   0  0  0  0  0  0  0  0  0  0  0  0
   -1.1919   -0.5595    1.8798 H   0  0  0  0  0  0  0  0  0  0  0  0
   -1.7297   -2.5117    0.5460 H   0  0  0  0  0  0  0  0  0  0  0  0
   -2.8363   -2.3910   -0.8417 H   0  0  0  0  0  0  0  0  0  0  0  0
   -0.6031   -3.0297   -1.6316 H   0  0  0  0  0  0  0  0  0  0  0  0
   -1.0008   -1.4067   -2.2563 H   0  0  0  0  0  0  0  0  0  0  0  0
    0.9663   -3.2866    0.3461 H   0  0  0  0  0  0  0  0  0  0  0  0
    2.9909   -2.3695    1.4689 H   0  0  0  0  0  0  0  0  0  0  0  0
    4.7718    1.8059    0.1027 H   0  0  0  0  0  0  0  0  0  0  0  0
    3.7403    2.3050    1.5147 H   0  0  0  0  0  0  0  0  0  0  0  0
    1.8795    2.4910    0.1004 H   0  0  0  0  0  0  0  0  0  0  0  0
    2.9192    1.9993   -1.3222 H   0  0  0  0  0  0  0  0  0  0  0  0
    0.2978    0.5615   -1.5368 H   0  0  0  0  0  0  0  0  0  0  0  0
  1  2  1  0
  2  3  2  0
  3  4  1  0
  4  5  2  0
  5  6  1  0
  6  7  2  0
  7  8  1  0
  8  9  1  0
  9 10  1  0
 10 11  1  0
 11 12  2  0
 12 13  1  0
 13 14  1  0
 14 15  1  0
 15 16  1  0
 16 17  1  0
 17 18  1  0
  7  2  1  0
 17 13  2  0
 18 10  2  0
  3 19  1  0
  4 20  1  0
  5 21  1  0
  6 22  1  0
  8 23  1  0
  8 24  1  0
  9 25  1  0
  9 26  1  0
 11 27  1  0
 12 28  1  0
 15 29  1  0
 15 30  1  0
 16 31  1  0
 16 32  1  0
 18 33  1  0
M  RAD  1   1   3
M  END
$$$$
