
     RDKit          3D

 33 35  0  0  0  0  0  0  0  0999 V2000
   -3.2978   -2.3391   -0.1314 N   0  0  0  0  0  1  0  0  0  0  0  0
   -3.6653   -1.0893    0.4488 C   0  0  0  0  0  0  0  0  0  0  0  0
   -5.0223   -0.7679    0.5745 C   0  0  0  0  0  0  0  0  0  0  0  0
   -5.4079    0.4565    1.1254 C   0  0  0  0  0  0  0  0  0  0  0  0
   -4.4393    1.3684    1.5492 C   0  0  0  0  0  0  0  0  0  0  0  0
   -3.0825    1.0565    1.4280 C   0  0  0  0  0  0  0  0  0  0  0  0
   -2.6810   -0.1786    0.8894 C   0  0  0  0  0  0  0  0  0  0  0  0
   -1.2103   -0.4800    0.7381 C   0  0  0  0  0  0  0  0  0  0  0  0
   -0.7111   -0.0499   -0.6445 C   0  0  0  0  0  0  0  0  0  0  0  0
    0.7546   -0.3536   -0.7949 C   0  0  0  0  0  0  0  0  0  0  0  0
    1.1741   -1.6155   -1.2802 C   0  0  0  0  0  0  0  0  0  0  0  0
    2.5416   -1.9165   -1.3897 C   0  0  0  0  0  0  0  0  0  0  0  0
    3.4634   -0.9479   -1.0001 C   0  0  0  0  0  0  0  0  0  0  0  0
    4.8360   -1.0572   -1.0295 O   0  0  0  0  0  0  0  0  0  0  0  0
    5.4354    0.1446   -0.5447 C   0  0  0  0  0  0  0  0  0  0  0  0
    4.2614    1.0865   -0.1791 C   0  0  0  0  0  0  0  0  0  0  0  0
    3.0698    0.2671   -0.5209 C   0  0  0  0  0  0  0  0  0  0  0  0
    1.7198    0.5969   -0.3993 C   0  0  0  0  0  0  0  0  0  0  0  0
   -5.7798   -1.4663    0.2412 H   0  0  0  0  0  0  0  0  0  0  0  0
   -6.4582    0.7007    1.2190 H   0  0  0  0  0  0  0  0  0  0  0  0
   -4.7398    2.3196    1.9691 H   0  0  0  0  0  0  0  0  0  0  0  0
   -2.3438    1.7790    1.7529 H   0  0  0  0  0  0  0  0  0  0  0  0
   -0.6325    0.0550    1.5243 H   0  0  0  0  0  0  0  0  0  0  0  0
   -1.0256   -1.5663    0.8867 H   0  0  0  0  0  0  0  0  0  0  0  0
   -1.2868   -0.5801   -1.4349 H   0  0  0  0  0  0  0  0  0  0  0  0
   -0.8855    1.0401   -0.7833 H   0  0  0  0  0  0  0  0  0  0  0  0
    0.4431   -2.3607   -1.5686 H   0  0  0  0  0  0  0  0  0  0  0  0
    2.8709   -2.8775   -1.7623 H   0  0  0  0  0  0  0  0  0  0  0  0
    6.0689    0.5942   -1.3389 H   0  0  0  0  0  0  0  0  0  0  0  0
    6.0545   -0.0797    0.3500 H   0  0  0  0  0  0  0  0  0  0  0  0
    4.2837    2.0127   -0.7924 H   0  0  0  0  0  0  0  0  0  0  0  0
    4.2655    1.3307    0.9048 H   0  0  0  0  0  0  0  0  0  0  0  0
    1.4269    1.5626   -0.0065 H   0  0  0  0  0  0  0  0  0  0  0  0
  1  2  1  0
  2  3  2  0
  3  4  1  0
  4  5  2  0
  5  6  1  0
  6  7  2  0
  7  8  1  0
  8  9  1  0
  9 10  1  0
 10 11  1  0
 11 12  2  0
 12 13  1  0
 13 14  1  0
 14 15  1  0
 15 16  1  0
 16 17  1  0
 17 18  1  0
  7  2  1  0
 17 13  2  0
 18 10  2  0
  3 19  1  0
  4 20  1  0
  5 21  1  0
  6 22  1  0
  8 23  1  0
  8 24  1  0
  9 25  1  0
  9 26  1  0
 11 27  1  0
 12 28  1  0
 15 29  1  0
 15 30  1  0
 16 31  1  0
 16 32  1  0
 18 33  1  0
M  RAD  1   1   3
M  END
$$$$
