
     RDKit          3D

 34 36  0  0  0  0  0  0  0  0999 V2000
   -3.4351   -1.8740   -1.4589 N   0  0  0  0  0  1  0  0  0  0  0  0
   -3.9350   -0.7975   -0.6683 C   0  0  0  0  0  0  0  0  0  0  0  0
   -5.2838   -0.4384   -0.7790 C   0  0  0  0  0  0  0  0  0  0  0  0
   -5.7942    0.6223   -0.0268 C   0  0  0  0  0  0  0  0  0  0  0  0
   -4.9581    1.3329    0.8366 C   0  0  0  0  0  0  0  0  0  0  0  0
   -3.6106    0.9818    0.9541 C   0  0  0  0  0  0  0  0  0  0  0  0
   -3.0877   -0.0933    0.2142 C   0  0  0  0  0  0  0  0  0  0  0  0
   -1.6224   -0.4334    0.3325 C   0  0  0  0  0  0  0  0  0  0  0  0
   -0.8086    0.3095   -0.7313 C   0  0  0  0  0  0  0  0  0  0  0  0
    0.6521   -0.0333   -0.6143 C   0  0  0  0  0  0  0  0  0  0  0  0
    1.1776   -1.1393   -1.3059 C   0  0  0  0  0  0  0  0  0  0  0  0
    2.5266   -1.4834   -1.1676 C   0  0  0  0  0  0  0  0  0  0  0  0
    3.3536   -0.7330   -0.3284 C   0  0  0  0  0  0  0  0  0  0  0  0
    4.6972   -1.0785   -0.1516 O   0  0  0  0  0  0  0  0  0  0  0  0
    5.4746   -0.5034    0.9019 C   0  0  0  0  0  0  0  0  0  0  0  0
    5.1165    0.9780    1.0790 C   0  0  0  0  0  0  0  0  0  0  0  0
    3.6977    1.1388    1.1553 O   0  0  0  0  0  0  0  0  0  0  0  0
    2.8409    0.3794    0.3521 C   0  0  0  0  0  0  0  0  0  0  0  0
    1.4906    0.7180    0.2272 C   0  0  0  0  0  0  0  0  0  0  0  0
   -5.9372   -0.9795   -1.4520 H   0  0  0  0  0  0  0  0  0  0  0  0
   -6.8372    0.8968   -0.1171 H   0  0  0  0  0  0  0  0  0  0  0  0
   -5.3537    2.1591    1.4132 H   0  0  0  0  0  0  0  0  0  0  0  0
   -2.9736    1.5493    1.6213 H   0  0  0  0  0  0  0  0  0  0  0  0
   -1.4748   -1.5302    0.2251 H   0  0  0  0  0  0  0  0  0  0  0  0
   -1.2512   -0.1565    1.3443 H   0  0  0  0  0  0  0  0  0  0  0  0
   -0.9488    1.4067   -0.6113 H   0  0  0  0  0  0  0  0  0  0  0  0
   -1.1777    0.0388   -1.7451 H   0  0  0  0  0  0  0  0  0  0  0  0
    0.5408   -1.7378   -1.9456 H   0  0  0  0  0  0  0  0  0  0  0  0
    2.9232   -2.3398   -1.6976 H   0  0  0  0  0  0  0  0  0  0  0  0
    5.2588   -1.0460    1.8472 H   0  0  0  0  0  0  0  0  0  0  0  0
    6.5546   -0.6120    0.6686 H   0  0  0  0  0  0  0  0  0  0  0  0
    5.4985    1.5519    0.2076 H   0  0  0  0  0  0  0  0  0  0  0  0
    5.5861    1.3786    2.0018 H   0  0  0  0  0  0  0  0  0  0  0  0
    1.0999    1.5675    0.7738 H   0  0  0  0  0  0  0  0  0  0  0  0
  1  2  1  0
  2  3  2  0
  3  4  1  0
  4  5  2  0
  5  6  1  0
  6  7  2  0
  7  8  1  0
  8  9  1  0
  9 10  1  0
 10 11  1  0
 11 12  2  0
 12 13  1  0
 13 14  1  0
 14 15  1  0
 15 16  1  0
 16 17  1  0
 17 18  1  0
 18 19  1  0
  7  2  1  0
 18 13  2  0
 19 10  2  0
  3 20  1  0
  4 21  1  0
  5 22  1  0
  6 23  1  0
  8 24  1  0
  8 25  1  0
  9 26  1  0
  9 27  1  0
 11 28  1  0
 12 29  1  0
 15 30  1  0
 15 31  1  0
 16 32  1  0
 16 33  1  0
 19 34  1  0
M  RAD  1   1   3
M  END
$$$$
