
     RDKit          3D

 34 36  0  0  0  0  0  0  0  0999 V2000
   -1.4358   -0.9423   -1.8113 N   0  0  0  0  0  1  0  0  0  0  0  0
   -2.0893    0.0700   -1.0486 C   0  0  0  0  0  0  0  0  0  0  0  0
   -2.2457    1.3452   -1.6046 C   0  0  0  0  0  0  0  0  0  0  0  0
   -2.8700    2.3600   -0.8759 C   0  0  0  0  0  0  0  0  0  0  0  0
   -3.3398    2.1066    0.4140 C   0  0  0  0  0  0  0  0  0  0  0  0
   -3.1873    0.8376    0.9785 C   0  0  0  0  0  0  0  0  0  0  0  0
   -2.5674   -0.1954    0.2540 C   0  0  0  0  0  0  0  0  0  0  0  0
   -2.3718   -1.5433    0.9113 C   0  0  0  0  0  0  0  0  0  0  0  0
   -1.1659   -1.5458    1.8618 C   0  0  0  0  0  0  0  0  0  0  0  0
    0.1295   -1.3270    1.1233 C   0  0  0  0  0  0  0  0  0  0  0  0
    0.7648   -2.4016    0.4761 C   0  0  0  0  0  0  0  0  0  0  0  0
    1.9417   -2.1927   -0.2506 C   0  0  0  0  0  0  0  0  0  0  0  0
    2.4856   -0.9091   -0.3404 C   0  0  0  0  0  0  0  0  0  0  0  0
    3.6739   -0.6821   -1.0420 O   0  0  0  0  0  0  0  0  0  0  0  0
    4.3775    0.5569   -0.9209 C   0  0  0  0  0  0  0  0  0  0  0  0
    3.3863    1.7259   -0.8483 C   0  0  0  0  0  0  0  0  0  0  0  0
    2.3734    1.4563    0.1241 O   0  0  0  0  0  0  0  0  0  0  0  0
    1.8390    0.1724    0.2721 C   0  0  0  0  0  0  0  0  0  0  0  0
    0.6741   -0.0354    1.0150 C   0  0  0  0  0  0  0  0  0  0  0  0
   -1.8793    1.5519   -2.6025 H   0  0  0  0  0  0  0  0  0  0  0  0
   -2.9868    3.3444   -1.3102 H   0  0  0  0  0  0  0  0  0  0  0  0
   -3.8188    2.8956    0.9792 H   0  0  0  0  0  0  0  0  0  0  0  0
   -3.5471    0.6604    1.9846 H   0  0  0  0  0  0  0  0  0  0  0  0
   -2.2562   -2.3478    0.1535 H   0  0  0  0  0  0  0  0  0  0  0  0
   -3.2832   -1.7973    1.4952 H   0  0  0  0  0  0  0  0  0  0  0  0
   -1.3019   -0.7675    2.6448 H   0  0  0  0  0  0  0  0  0  0  0  0
   -1.1272   -2.5240    2.3888 H   0  0  0  0  0  0  0  0  0  0  0  0
    0.3461   -3.3987    0.5328 H   0  0  0  0  0  0  0  0  0  0  0  0
    2.4319   -3.0261   -0.7372 H   0  0  0  0  0  0  0  0  0  0  0  0
    4.9861    0.5370    0.0085 H   0  0  0  0  0  0  0  0  0  0  0  0
    5.0581    0.6841   -1.7886 H   0  0  0  0  0  0  0  0  0  0  0  0
    3.9175    2.6636   -0.5814 H   0  0  0  0  0  0  0  0  0  0  0  0
    2.9066    1.8593   -1.8417 H   0  0  0  0  0  0  0  0  0  0  0  0
    0.1814    0.8087    1.4819 H   0  0  0  0  0  0  0  0  0  0  0  0
  1  2  1  0
  2  3  2  0
  3  4  1  0
  4  5  2  0
  5  6  1  0
  6  7  2  0
  7  8  1  0
  8  9  1  0
  9 10  1  0
 10 11  1  0
 11 12  2  0
 12 13  1  0
 13 14  1  0
 14 15  1  0
 15 16  1  0
 16 17  1  0
 17 18  1  0
 18 19  1  0
  7  2  1  0
 18 13  2  0
 19 10  2  0
  3 20  1  0
  4 21  1  0
  5 22  1  0
  6 23  1  0
  8 24  1  0
  8 25  1  0
  9 26  1  0
  9 27  1  0
 11 28  1  0
 12 29  1  0
 15 30  1  0
 15 31  1  0
 16 32  1  0
 16 33  1  0
 19 34  1  0
M  RAD  1   1   3
M  END
$$$$
