
     RDKit          3D

 34 36  0  0  0  0  0  0  0  0999 V2000
   -3.5816   -1.8209    1.1341 N   0  0  0  0  0  1  0  0  0  0  0  0
   -3.9905   -0.5951    0.5309 C   0  0  0  0  0  0  0  0  0  0  0  0
   -5.3424   -0.4049    0.2202 C   0  0  0  0  0  0  0  0  0  0  0  0
   -5.7659    0.7808   -0.3849 C   0  0  0  0  0  0  0  0  0  0  0  0
   -4.8397    1.7809   -0.6871 C   0  0  0  0  0  0  0  0  0  0  0  0
   -3.4883    1.6004   -0.3806 C   0  0  0  0  0  0  0  0  0  0  0  0
   -3.0511    0.4182    0.2423 C   0  0  0  0  0  0  0  0  0  0  0  0
   -1.5824    0.2318    0.5340 C   0  0  0  0  0  0  0  0  0  0  0  0
   -0.8863   -0.4756   -0.6326 C   0  0  0  0  0  0  0  0  0  0  0  0
    0.5776   -0.6638   -0.3389 C   0  0  0  0  0  0  0  0  0  0  0  0
    1.0228   -1.8165    0.3326 C   0  0  0  0  0  0  0  0  0  0  0  0
    2.3779   -1.9752    0.6417 C   0  0  0  0  0  0  0  0  0  0  0  0
    3.2925   -0.9783    0.2936 C   0  0  0  0  0  0  0  0  0  0  0  0
    4.6465   -1.1027    0.6209 O   0  0  0  0  0  0  0  0  0  0  0  0
    5.5344    0.0141    0.5259 C   0  0  0  0  0  0  0  0  0  0  0  0
    5.2011    0.8541   -0.7141 C   0  0  0  0  0  0  0  0  0  0  0  0
    3.7992    1.1317   -0.7621 O   0  0  0  0  0  0  0  0  0  0  0  0
    2.8589    0.1660   -0.3890 C   0  0  0  0  0  0  0  0  0  0  0  0
    1.5038    0.3344   -0.6873 C   0  0  0  0  0  0  0  0  0  0  0  0
   -6.0661   -1.1787    0.4443 H   0  0  0  0  0  0  0  0  0  0  0  0
   -6.8119    0.9222   -0.6244 H   0  0  0  0  0  0  0  0  0  0  0  0
   -5.1686    2.6960   -1.1626 H   0  0  0  0  0  0  0  0  0  0  0  0
   -2.7815    2.3822   -0.6303 H   0  0  0  0  0  0  0  0  0  0  0  0
   -1.4501   -0.3573    1.4677 H   0  0  0  0  0  0  0  0  0  0  0  0
   -1.1035    1.2211    0.7073 H   0  0  0  0  0  0  0  0  0  0  0  0
   -1.0100    0.1241   -1.5615 H   0  0  0  0  0  0  0  0  0  0  0  0
   -1.3632   -1.4643   -0.8124 H   0  0  0  0  0  0  0  0  0  0  0  0
    0.3192   -2.5873    0.6220 H   0  0  0  0  0  0  0  0  0  0  0  0
    2.7130   -2.8618    1.1645 H   0  0  0  0  0  0  0  0  0  0  0  0
    6.5826   -0.3478    0.4739 H   0  0  0  0  0  0  0  0  0  0  0  0
    5.4204    0.6441    1.4341 H   0  0  0  0  0  0  0  0  0  0  0  0
    5.7684    1.8082   -0.6953 H   0  0  0  0  0  0  0  0  0  0  0  0
    5.4883    0.2876   -1.6259 H   0  0  0  0  0  0  0  0  0  0  0  0
    1.1765    1.2323   -1.1969 H   0  0  0  0  0  0  0  0  0  0  0  0
  1  2  1  0
  2  3  2  0
  3  4  1  0
  4  5  2  0
  5  6  1  0
  6  7  2  0
  7  8  1  0
  8  9  1  0
  9 10  1  0
 10 11  1  0
 11 12  2  0
 12 13  1  0
 13 14  1  0
 14 15  1  0
 15 16  1  0
 16 17  1  0
 17 18  1  0
 18 19  1  0
  7  2  1  0
 18 13  2  0
 19 10  2  0
  3 20  1  0
  4 21  1  0
  5 22  1  0
  6 23  1  0
  8 24  1  0
  8 25  1  0
  9 26  1  0
  9 27  1  0
 11 28  1  0
 12 29  1  0
 15 30  1  0
 15 31  1  0
 16 32  1  0
 16 33  1  0
 19 34  1  0
M  RAD  1   1   3
M  END
$$$$
