
     RDKit          3D

 34 36  0  0  0  0  0  0  0  0999 V2000
   -3.7816   -1.2690    2.0174 N   0  0  0  0  0  1  0  0  0  0  0  0
   -3.2738   -0.2100    1.2088 C   0  0  0  0  0  0  0  0  0  0  0  0
   -3.5178    1.1156    1.5875 C   0  0  0  0  0  0  0  0  0  0  0  0
   -3.0202    2.1707    0.8190 C   0  0  0  0  0  0  0  0  0  0  0  0
   -2.2757    1.9067   -0.3321 C   0  0  0  0  0  0  0  0  0  0  0  0
   -2.0293    0.5872   -0.7195 C   0  0  0  0  0  0  0  0  0  0  0  0
   -2.5290   -0.4845    0.0419 C   0  0  0  0  0  0  0  0  0  0  0  0
   -2.2039   -1.9035   -0.3658 C   0  0  0  0  0  0  0  0  0  0  0  0
   -1.0059   -2.4631    0.4151 C   0  0  0  0  0  0  0  0  0  0  0  0
    0.2577   -1.6934    0.1264 C   0  0  0  0  0  0  0  0  0  0  0  0
    0.9936   -1.9551   -1.0428 C   0  0  0  0  0  0  0  0  0  0  0  0
    2.1399   -1.2095   -1.3381 C   0  0  0  0  0  0  0  0  0  0  0  0
    2.5521   -0.1944   -0.4714 C   0  0  0  0  0  0  0  0  0  0  0  0
    3.7081    0.5472   -0.7353 O   0  0  0  0  0  0  0  0  0  0  0  0
    4.2847    1.3950    0.2615 C   0  0  0  0  0  0  0  0  0  0  0  0
    3.1819    2.1000    1.0622 C   0  0  0  0  0  0  0  0  0  0  0  0
    2.2060    1.1517    1.5013 O   0  0  0  0  0  0  0  0  0  0  0  0
    1.8036    0.0962    0.6767 C   0  0  0  0  0  0  0  0  0  0  0  0
    0.6693   -0.6590    0.9850 C   0  0  0  0  0  0  0  0  0  0  0  0
   -4.0903    1.3292    2.4815 H   0  0  0  0  0  0  0  0  0  0  0  0
   -3.2090    3.1936    1.1180 H   0  0  0  0  0  0  0  0  0  0  0  0
   -1.8851    2.7253   -0.9226 H   0  0  0  0  0  0  0  0  0  0  0  0
   -1.4378    0.4004   -1.6075 H   0  0  0  0  0  0  0  0  0  0  0  0
   -3.0871   -2.5542   -0.1884 H   0  0  0  0  0  0  0  0  0  0  0  0
   -1.9931   -1.9550   -1.4568 H   0  0  0  0  0  0  0  0  0  0  0  0
   -1.2266   -2.4513    1.5049 H   0  0  0  0  0  0  0  0  0  0  0  0
   -0.8592   -3.5279    0.1314 H   0  0  0  0  0  0  0  0  0  0  0  0
    0.6774   -2.7347   -1.7248 H   0  0  0  0  0  0  0  0  0  0  0  0
    2.7085   -1.4238   -2.2338 H   0  0  0  0  0  0  0  0  0  0  0  0
    4.9448    2.1439   -0.2242 H   0  0  0  0  0  0  0  0  0  0  0  0
    4.8970    0.7758    0.9517 H   0  0  0  0  0  0  0  0  0  0  0  0
    2.6861    2.8542    0.4140 H   0  0  0  0  0  0  0  0  0  0  0  0
    3.6178    2.6188    1.9416 H   0  0  0  0  0  0  0  0  0  0  0  0
    0.0968   -0.4231    1.8738 H   0  0  0  0  0  0  0  0  0  0  0  0
  1  2  1  0
  2  3  2  0
  3  4  1  0
  4  5  2  0
  5  6  1  0
  6  7  2  0
  7  8  1  0
  8  9  1  0
  9 10  1  0
 10 11  1  0
 11 12  2  0
 12 13  1  0
 13 14  1  0
 14 15  1  0
 15 16  1  0
 16 17  1  0
 17 18  1  0
 18 19  1  0
  7  2  1  0
 18 13  2  0
 19 10  2  0
  3 20  1  0
  4 21  1  0
  5 22  1  0
  6 23  1  0
  8 24  1  0
  8 25  1  0
  9 26  1  0
  9 27  1  0
 11 28  1  0
 12 29  1  0
 15 30  1  0
 15 31  1  0
 16 32  1  0
 16 33  1  0
 19 34  1  0
M  RAD  1   1   3
M  END
$$$$
