
     RDKit          3D

 34 36  0  0  0  0  0  0  0  0999 V2000
   -3.4468    1.7901   -2.0068 N   0  0  0  0  0  1  0  0  0  0  0  0
   -3.1102    1.2244   -0.7419 C   0  0  0  0  0  0  0  0  0  0  0  0
   -3.3916    1.9452    0.4250 C   0  0  0  0  0  0  0  0  0  0  0  0
   -3.0600    1.4183    1.6755 C   0  0  0  0  0  0  0  0  0  0  0  0
   -2.4452    0.1682    1.7666 C   0  0  0  0  0  0  0  0  0  0  0  0
   -2.1629   -0.5597    0.6080 C   0  0  0  0  0  0  0  0  0  0  0  0
   -2.4964   -0.0435   -0.6570 C   0  0  0  0  0  0  0  0  0  0  0  0
   -2.1321   -0.8237   -1.8996 C   0  0  0  0  0  0  0  0  0  0  0  0
   -0.8147   -0.3334   -2.5177 C   0  0  0  0  0  0  0  0  0  0  0  0
    0.3523   -0.5474   -1.5877 C   0  0  0  0  0  0  0  0  0  0  0  0
    0.9563   -1.8134   -1.4906 C   0  0  0  0  0  0  0  0  0  0  0  0
    2.0077   -2.0278   -0.5932 C   0  0  0  0  0  0  0  0  0  0  0  0
    2.4556   -0.9815    0.2167 C   0  0  0  0  0  0  0  0  0  0  0  0
    3.5208   -1.1676    1.1037 O   0  0  0  0  0  0  0  0  0  0  0  0
    4.1581   -0.0545    1.7358 C   0  0  0  0  0  0  0  0  0  0  0  0
    3.1173    1.0048    2.1220 C   0  0  0  0  0  0  0  0  0  0  0  0
    2.2651    1.2897    1.0098 O   0  0  0  0  0  0  0  0  0  0  0  0
    1.8347    0.2728    0.1516 C   0  0  0  0  0  0  0  0  0  0  0  0
    0.7973    0.4961   -0.7572 C   0  0  0  0  0  0  0  0  0  0  0  0
   -3.8640    2.9176    0.3629 H   0  0  0  0  0  0  0  0  0  0  0  0
   -3.2768    1.9810    2.5743 H   0  0  0  0  0  0  0  0  0  0  0  0
   -2.1827   -0.2356    2.7359 H   0  0  0  0  0  0  0  0  0  0  0  0
   -1.6727   -1.5215    0.6962 H   0  0  0  0  0  0  0  0  0  0  0  0
   -2.9435   -0.7258   -2.6526 H   0  0  0  0  0  0  0  0  0  0  0  0
   -2.0524   -1.9086   -1.6670 H   0  0  0  0  0  0  0  0  0  0  0  0
   -0.9019    0.7414   -2.7893 H   0  0  0  0  0  0  0  0  0  0  0  0
   -0.6351   -0.8876   -3.4645 H   0  0  0  0  0  0  0  0  0  0  0  0
    0.6107   -2.6328   -2.1087 H   0  0  0  0  0  0  0  0  0  0  0  0
    2.4761   -3.0017   -0.5318 H   0  0  0  0  0  0  0  0  0  0  0  0
    4.7046   -0.4021    2.6375 H   0  0  0  0  0  0  0  0  0  0  0  0
    4.8883    0.3932    1.0280 H   0  0  0  0  0  0  0  0  0  0  0  0
    2.4990    0.6195    2.9610 H   0  0  0  0  0  0  0  0  0  0  0  0
    3.6223    1.9369    2.4516 H   0  0  0  0  0  0  0  0  0  0  0  0
    0.3228    1.4690   -0.7965 H   0  0  0  0  0  0  0  0  0  0  0  0
  1  2  1  0
  2  3  2  0
  3  4  1  0
  4  5  2  0
  5  6  1  0
  6  7  2  0
  7  8  1  0
  8  9  1  0
  9 10  1  0
 10 11  1  0
 11 12  2  0
 12 13  1  0
 13 14  1  0
 14 15  1  0
 15 16  1  0
 16 17  1  0
 17 18  1  0
 18 19  1  0
  7  2  1  0
 18 13  2  0
 19 10  2  0
  3 20  1  0
  4 21  1  0
  5 22  1  0
  6 23  1  0
  8 24  1  0
  8 25  1  0
  9 26  1  0
  9 27  1  0
 11 28  1  0
 12 29  1  0
 15 30  1  0
 15 31  1  0
 16 32  1  0
 16 33  1  0
 19 34  1  0
M  RAD  1   1   3
M  END
$$$$
