
     RDKit          3D

 34 36  0  0  0  0  0  0  0  0999 V2000
   -1.1519    1.1690   -1.8327 N   0  0  0  0  0  1  0  0  0  0  0  0
   -1.9823    1.0178   -0.6834 C   0  0  0  0  0  0  0  0  0  0  0  0
   -2.2393    2.1344    0.1210 C   0  0  0  0  0  0  0  0  0  0  0  0
   -3.0382    2.0133    1.2602 C   0  0  0  0  0  0  0  0  0  0  0  0
   -3.5833    0.7748    1.6032 C   0  0  0  0  0  0  0  0  0  0  0  0
   -3.3316   -0.3460    0.8078 C   0  0  0  0  0  0  0  0  0  0  0  0
   -2.5352   -0.2376   -0.3456 C   0  0  0  0  0  0  0  0  0  0  0  0
   -2.2395   -1.4788   -1.1575 C   0  0  0  0  0  0  0  0  0  0  0  0
   -1.1271   -2.3254   -0.5223 C   0  0  0  0  0  0  0  0  0  0  0  0
    0.1918   -1.5964   -0.5073 C   0  0  0  0  0  0  0  0  0  0  0  0
    1.0017   -1.5760   -1.6566 C   0  0  0  0  0  0  0  0  0  0  0  0
    2.2037   -0.8603   -1.6614 C   0  0  0  0  0  0  0  0  0  0  0  0
    2.5988   -0.1561   -0.5215 C   0  0  0  0  0  0  0  0  0  0  0  0
    3.8077    0.5467   -0.4969 O   0  0  0  0  0  0  0  0  0  0  0  0
    4.3481    1.0431    0.7305 C   0  0  0  0  0  0  0  0  0  0  0  0
    3.2240    1.5744    1.6296 C   0  0  0  0  0  0  0  0  0  0  0  0
    2.1705    0.6125    1.7255 O   0  0  0  0  0  0  0  0  0  0  0  0
    1.7798   -0.1426    0.6152 C   0  0  0  0  0  0  0  0  0  0  0  0
    0.5883   -0.8721    0.6306 C   0  0  0  0  0  0  0  0  0  0  0  0
   -1.8159    3.0976   -0.1348 H   0  0  0  0  0  0  0  0  0  0  0  0
   -3.2323    2.8797    1.8792 H   0  0  0  0  0  0  0  0  0  0  0  0
   -4.1981    0.6818    2.4891 H   0  0  0  0  0  0  0  0  0  0  0  0
   -3.7526   -1.3021    1.0939 H   0  0  0  0  0  0  0  0  0  0  0  0
   -1.9661   -1.2202   -2.2031 H   0  0  0  0  0  0  0  0  0  0  0  0
   -3.1613   -2.0971   -1.2229 H   0  0  0  0  0  0  0  0  0  0  0  0
   -1.0189   -3.2679   -1.1021 H   0  0  0  0  0  0  0  0  0  0  0  0
   -1.4198   -2.6185    0.5100 H   0  0  0  0  0  0  0  0  0  0  0  0
    0.6997   -2.1119   -2.5479 H   0  0  0  0  0  0  0  0  0  0  0  0
    2.8280   -0.8578   -2.5456 H   0  0  0  0  0  0  0  0  0  0  0  0
    5.0806    1.8490    0.5150 H   0  0  0  0  0  0  0  0  0  0  0  0
    4.8734    0.2158    1.2543 H   0  0  0  0  0  0  0  0  0  0  0  0
    3.6167    1.7979    2.6437 H   0  0  0  0  0  0  0  0  0  0  0  0
    2.8183    2.5113    1.1909 H   0  0  0  0  0  0  0  0  0  0  0  0
   -0.0380   -0.8522    1.5141 H   0  0  0  0  0  0  0  0  0  0  0  0
  1  2  1  0
  2  3  2  0
  3  4  1  0
  4  5  2  0
  5  6  1  0
  6  7  2  0
  7  8  1  0
  8  9  1  0
  9 10  1  0
 10 11  1  0
 11 12  2  0
 12 13  1  0
 13 14  1  0
 14 15  1  0
 15 16  1  0
 16 17  1  0
 17 18  1  0
 18 19  1  0
  7  2  1  0
 18 13  2  0
 19 10  2  0
  3 20  1  0
  4 21  1  0
  5 22  1  0
  6 23  1  0
  8 24  1  0
  8 25  1  0
  9 26  1  0
  9 27  1  0
 11 28  1  0
 12 29  1  0
 15 30  1  0
 15 31  1  0
 16 32  1  0
 16 33  1  0
 19 34  1  0
M  RAD  1   1   3
M  END
$$$$
