
     RDKit          3D

 34 36  0  0  0  0  0  0  0  0999 V2000
   -3.7771   -0.4442   -2.2757 N   0  0  0  0  0  1  0  0  0  0  0  0
   -3.2791   -0.5439   -0.9432 C   0  0  0  0  0  0  0  0  0  0  0  0
   -3.5482   -1.6985   -0.1984 C   0  0  0  0  0  0  0  0  0  0  0  0
   -3.0610   -1.8255    1.1046 C   0  0  0  0  0  0  0  0  0  0  0  0
   -2.3016   -0.7996    1.6701 C   0  0  0  0  0  0  0  0  0  0  0  0
   -2.0300    0.3574    0.9356 C   0  0  0  0  0  0  0  0  0  0  0  0
   -2.5193    0.5009   -0.3751 C   0  0  0  0  0  0  0  0  0  0  0  0
   -2.1682    1.7378   -1.1702 C   0  0  0  0  0  0  0  0  0  0  0  0
   -0.9683    1.4999   -2.0982 C   0  0  0  0  0  0  0  0  0  0  0  0
    0.2854    1.1888   -1.3211 C   0  0  0  0  0  0  0  0  0  0  0  0
    1.0363    2.2283   -0.7445 C   0  0  0  0  0  0  0  0  0  0  0  0
    2.1666    1.9393    0.0275 C   0  0  0  0  0  0  0  0  0  0  0  0
    2.5450    0.6111    0.2373 C   0  0  0  0  0  0  0  0  0  0  0  0
    3.6496    0.2988    1.0361 O   0  0  0  0  0  0  0  0  0  0  0  0
    3.8788   -1.0385    1.4877 C   0  0  0  0  0  0  0  0  0  0  0  0
    3.5261   -2.0410    0.3811 C   0  0  0  0  0  0  0  0  0  0  0  0
    2.2344   -1.7491   -0.1583 O   0  0  0  0  0  0  0  0  0  0  0  0
    1.8140   -0.4293   -0.3510 C   0  0  0  0  0  0  0  0  0  0  0  0
    0.6788   -0.1451   -1.1145 C   0  0  0  0  0  0  0  0  0  0  0  0
   -4.1322   -2.5010   -0.6313 H   0  0  0  0  0  0  0  0  0  0  0  0
   -3.2692   -2.7215    1.6749 H   0  0  0  0  0  0  0  0  0  0  0  0
   -1.9192   -0.9025    2.6774 H   0  0  0  0  0  0  0  0  0  0  0  0
   -1.4275    1.1375    1.3847 H   0  0  0  0  0  0  0  0  0  0  0  0
   -1.9473    2.5880   -0.4876 H   0  0  0  0  0  0  0  0  0  0  0  0
   -3.0424    2.0488   -1.7816 H   0  0  0  0  0  0  0  0  0  0  0  0
   -1.1984    0.6766   -2.8094 H   0  0  0  0  0  0  0  0  0  0  0  0
   -0.8026    2.4128   -2.7108 H   0  0  0  0  0  0  0  0  0  0  0  0
    0.7384    3.2601   -0.8836 H   0  0  0  0  0  0  0  0  0  0  0  0
    2.7343    2.7438    0.4771 H   0  0  0  0  0  0  0  0  0  0  0  0
    3.2385   -1.2346    2.3745 H   0  0  0  0  0  0  0  0  0  0  0  0
    4.9423   -1.1533    1.7850 H   0  0  0  0  0  0  0  0  0  0  0  0
    4.2811   -1.9681   -0.4309 H   0  0  0  0  0  0  0  0  0  0  0  0
    3.5356   -3.0757    0.7832 H   0  0  0  0  0  0  0  0  0  0  0  0
    0.1065   -0.9588   -1.5428 H   0  0  0  0  0  0  0  0  0  0  0  0
  1  2  1  0
  2  3  2  0
  3  4  1  0
  4  5  2  0
  5  6  1  0
  6  7  2  0
  7  8  1  0
  8  9  1  0
  9 10  1  0
 10 11  1  0
 11 12  2  0
 12 13  1  0
 13 14  1  0
 14 15  1  0
 15 16  1  0
 16 17  1  0
 17 18  1  0
 18 19  1  0
  7  2  1  0
 18 13  2  0
 19 10  2  0
  3 20  1  0
  4 21  1  0
  5 22  1  0
  6 23  1  0
  8 24  1  0
  8 25  1  0
  9 26  1  0
  9 27  1  0
 11 28  1  0
 12 29  1  0
 15 30  1  0
 15 31  1  0
 16 32  1  0
 16 33  1  0
 19 34  1  0
M  RAD  1   1   3
M  END
$$$$
