
     RDKit          3D

 34 36  0  0  0  0  0  0  0  0999 V2000
   -3.3912   -2.0123    1.3380 N   0  0  0  0  0  1  0  0  0  0  0  0
   -3.9064   -0.7964    0.7998 C   0  0  0  0  0  0  0  0  0  0  0  0
   -5.2834   -0.6788    0.5751 C   0  0  0  0  0  0  0  0  0  0  0  0
   -5.8109    0.4963    0.0345 C   0  0  0  0  0  0  0  0  0  0  0  0
   -4.9644    1.5585   -0.2889 C   0  0  0  0  0  0  0  0  0  0  0  0
   -3.5887    1.4506   -0.0681 C   0  0  0  0  0  0  0  0  0  0  0  0
   -3.0467    0.2794    0.4896 C   0  0  0  0  0  0  0  0  0  0  0  0
   -1.5547    0.1731    0.6886 C   0  0  0  0  0  0  0  0  0  0  0  0
   -0.8903   -0.4573   -0.5390 C   0  0  0  0  0  0  0  0  0  0  0  0
    0.5971   -0.5657   -0.3378 C   0  0  0  0  0  0  0  0  0  0  0  0
    1.1483   -1.7085    0.2689 C   0  0  0  0  0  0  0  0  0  0  0  0
    2.5266   -1.7945    0.4927 C   0  0  0  0  0  0  0  0  0  0  0  0
    3.3589   -0.7349    0.1241 C   0  0  0  0  0  0  0  0  0  0  0  0
    4.7352   -0.7872    0.3674 O   0  0  0  0  0  0  0  0  0  0  0  0
    5.5492    0.3832    0.2567 C   0  0  0  0  0  0  0  0  0  0  0  0
    5.0933    1.2371   -0.9338 C   0  0  0  0  0  0  0  0  0  0  0  0
    3.6773    1.4313   -0.8906 O   0  0  0  0  0  0  0  0  0  0  0  0
    2.8191    0.4005   -0.4945 C   0  0  0  0  0  0  0  0  0  0  0  0
    1.4410    0.4959   -0.7073 C   0  0  0  0  0  0  0  0  0  0  0  0
   -5.9459   -1.5008    0.8160 H   0  0  0  0  0  0  0  0  0  0  0  0
   -6.8759    0.5815   -0.1387 H   0  0  0  0  0  0  0  0  0  0  0  0
   -5.3741    2.4655   -0.7145 H   0  0  0  0  0  0  0  0  0  0  0  0
   -2.9450    2.2803   -0.3333 H   0  0  0  0  0  0  0  0  0  0  0  0
   -1.1246    1.1839    0.8654 H   0  0  0  0  0  0  0  0  0  0  0  0
   -1.3322   -0.4337    1.5934 H   0  0  0  0  0  0  0  0  0  0  0  0
   -1.3189   -1.4673   -0.7225 H   0  0  0  0  0  0  0  0  0  0  0  0
   -1.1046    0.1604   -1.4392 H   0  0  0  0  0  0  0  0  0  0  0  0
    0.5096   -2.5282    0.5739 H   0  0  0  0  0  0  0  0  0  0  0  0
    2.9436   -2.6741    0.9661 H   0  0  0  0  0  0  0  0  0  0  0  0
    5.4538    0.9788    1.1899 H   0  0  0  0  0  0  0  0  0  0  0  0
    6.6116    0.0865    0.1317 H   0  0  0  0  0  0  0  0  0  0  0  0
    5.6043    2.2225   -0.9173 H   0  0  0  0  0  0  0  0  0  0  0  0
    5.3575    0.7154   -1.8787 H   0  0  0  0  0  0  0  0  0  0  0  0
    1.0317    1.3869   -1.1676 H   0  0  0  0  0  0  0  0  0  0  0  0
  1  2  1  0
  2  3  2  0
  3  4  1  0
  4  5  2  0
  5  6  1  0
  6  7  2  0
  7  8  1  0
  8  9  1  0
  9 10  1  0
 10 11  1  0
 11 12  2  0
 12 13  1  0
 13 14  1  0
 14 15  1  0
 15 16  1  0
 16 17  1  0
 17 18  1  0
 18 19  1  0
  7  2  1  0
 18 13  2  0
 19 10  2  0
  3 20  1  0
  4 21  1  0
  5 22  1  0
  6 23  1  0
  8 24  1  0
  8 25  1  0
  9 26  1  0
  9 27  1  0
 11 28  1  0
 12 29  1  0
 15 30  1  0
 15 31  1  0
 16 32  1  0
 16 33  1  0
 19 34  1  0
M  RAD  1   1   3
M  END
$$$$
