
     RDKit          3D

 34 36  0  0  0  0  0  0  0  0999 V2000
   -3.8308    1.3722    1.5489 N   0  0  0  0  0  1  0  0  0  0  0  0
   -3.3188    0.3252    0.7274 C   0  0  0  0  0  0  0  0  0  0  0  0
   -3.6469   -1.0020    1.0293 C   0  0  0  0  0  0  0  0  0  0  0  0
   -3.1475   -2.0463    0.2474 C   0  0  0  0  0  0  0  0  0  0  0  0
   -2.3172   -1.7700   -0.8403 C   0  0  0  0  0  0  0  0  0  0  0  0
   -1.9864   -0.4487   -1.1510 C   0  0  0  0  0  0  0  0  0  0  0  0
   -2.4867    0.6126   -0.3756 C   0  0  0  0  0  0  0  0  0  0  0  0
   -2.0716    2.0303   -0.6969 C   0  0  0  0  0  0  0  0  0  0  0  0
   -0.9040    2.4984    0.1838 C   0  0  0  0  0  0  0  0  0  0  0  0
    0.3400    1.6819   -0.0576 C   0  0  0  0  0  0  0  0  0  0  0  0
    1.1629    1.9571   -1.1640 C   0  0  0  0  0  0  0  0  0  0  0  0
    2.2913    1.1705   -1.4184 C   0  0  0  0  0  0  0  0  0  0  0  0
    2.5990    0.1011   -0.5739 C   0  0  0  0  0  0  0  0  0  0  0  0
    3.7353   -0.6833   -0.7962 O   0  0  0  0  0  0  0  0  0  0  0  0
    4.2058   -1.5991    0.1963 C   0  0  0  0  0  0  0  0  0  0  0  0
    3.0216   -2.2835    0.8917 C   0  0  0  0  0  0  0  0  0  0  0  0
    2.0625   -1.3088    1.3096 O   0  0  0  0  0  0  0  0  0  0  0  0
    1.7637   -0.2015    0.5094 C   0  0  0  0  0  0  0  0  0  0  0  0
    0.6467    0.5936    0.7781 C   0  0  0  0  0  0  0  0  0  0  0  0
   -4.2864   -1.2254    1.8741 H   0  0  0  0  0  0  0  0  0  0  0  0
   -3.4016   -3.0708    0.4871 H   0  0  0  0  0  0  0  0  0  0  0  0
   -1.9256   -2.5807   -1.4410 H   0  0  0  0  0  0  0  0  0  0  0  0
   -1.3296   -0.2531   -1.9898 H   0  0  0  0  0  0  0  0  0  0  0  0
   -2.9343    2.7146   -0.5474 H   0  0  0  0  0  0  0  0  0  0  0  0
   -1.7868    2.1177   -1.7687 H   0  0  0  0  0  0  0  0  0  0  0  0
   -0.6909    3.5660   -0.0414 H   0  0  0  0  0  0  0  0  0  0  0  0
   -1.1968    2.4513    1.2556 H   0  0  0  0  0  0  0  0  0  0  0  0
    0.9280    2.7790   -1.8290 H   0  0  0  0  0  0  0  0  0  0  0  0
    2.9272    1.3949   -2.2652 H   0  0  0  0  0  0  0  0  0  0  0  0
    4.8621   -2.3576   -0.2794 H   0  0  0  0  0  0  0  0  0  0  0  0
    4.7983   -1.0396    0.9517 H   0  0  0  0  0  0  0  0  0  0  0  0
    3.3745   -2.8592    1.7729 H   0  0  0  0  0  0  0  0  0  0  0  0
    2.5364   -2.9850    0.1796 H   0  0  0  0  0  0  0  0  0  0  0  0
    0.0065    0.3482    1.6166 H   0  0  0  0  0  0  0  0  0  0  0  0
  1  2  1  0
  2  3  2  0
  3  4  1  0
  4  5  2  0
  5  6  1  0
  6  7  2  0
  7  8  1  0
  8  9  1  0
  9 10  1  0
 10 11  1  0
 11 12  2  0
 12 13  1  0
 13 14  1  0
 14 15  1  0
 15 16  1  0
 16 17  1  0
 17 18  1  0
 18 19  1  0
  7  2  1  0
 18 13  2  0
 19 10  2  0
  3 20  1  0
  4 21  1  0
  5 22  1  0
  6 23  1  0
  8 24  1  0
  8 25  1  0
  9 26  1  0
  9 27  1  0
 11 28  1  0
 12 29  1  0
 15 30  1  0
 15 31  1  0
 16 32  1  0
 16 33  1  0
 19 34  1  0
M  RAD  1   1   3
M  END
$$$$
