
     RDKit          3D

 34 36  0  0  0  0  0  0  0  0999 V2000
   -3.3337   -2.3009    1.0331 N   0  0  0  0  0  1  0  0  0  0  0  0
   -3.8794   -1.0349    0.6684 C   0  0  0  0  0  0  0  0  0  0  0  0
   -5.2609   -0.9180    0.4725 C   0  0  0  0  0  0  0  0  0  0  0  0
   -5.8180    0.3076    0.0999 C   0  0  0  0  0  0  0  0  0  0  0  0
   -4.9970    1.4219   -0.0835 C   0  0  0  0  0  0  0  0  0  0  0  0
   -3.6171    1.3151    0.1099 C   0  0  0  0  0  0  0  0  0  0  0  0
   -3.0453    0.0913    0.4997 C   0  0  0  0  0  0  0  0  0  0  0  0
   -1.5493   -0.0085    0.6707 C   0  0  0  0  0  0  0  0  0  0  0  0
   -0.8854   -0.4528   -0.6361 C   0  0  0  0  0  0  0  0  0  0  0  0
    0.6060   -0.5551   -0.4631 C   0  0  0  0  0  0  0  0  0  0  0  0
    1.1869   -1.7571   -0.0209 C   0  0  0  0  0  0  0  0  0  0  0  0
    2.5690   -1.8426    0.1783 C   0  0  0  0  0  0  0  0  0  0  0  0
    3.3755   -0.7251   -0.0502 C   0  0  0  0  0  0  0  0  0  0  0  0
    4.7550   -0.7799    0.1730 O   0  0  0  0  0  0  0  0  0  0  0  0
    5.5437    0.4121    0.2151 C   0  0  0  0  0  0  0  0  0  0  0  0
    5.0578    1.4088   -0.8454 C   0  0  0  0  0  0  0  0  0  0  0  0
    3.6386    1.5646   -0.7652 O   0  0  0  0  0  0  0  0  0  0  0  0
    2.8059    0.4714   -0.5053 C   0  0  0  0  0  0  0  0  0  0  0  0
    1.4239    0.5647   -0.6924 C   0  0  0  0  0  0  0  0  0  0  0  0
   -5.9038   -1.7791    0.6052 H   0  0  0  0  0  0  0  0  0  0  0  0
   -6.8864    0.3924   -0.0517 H   0  0  0  0  0  0  0  0  0  0  0  0
   -5.4296    2.3689   -0.3793 H   0  0  0  0  0  0  0  0  0  0  0  0
   -2.9933    2.1868   -0.0458 H   0  0  0  0  0  0  0  0  0  0  0  0
   -1.3048   -0.7269    1.4833 H   0  0  0  0  0  0  0  0  0  0  0  0
   -1.1381    0.9783    0.9792 H   0  0  0  0  0  0  0  0  0  0  0  0
   -1.2953   -1.4378   -0.9511 H   0  0  0  0  0  0  0  0  0  0  0  0
   -1.1219    0.2760   -1.4427 H   0  0  0  0  0  0  0  0  0  0  0  0
    0.5684   -2.6241    0.1755 H   0  0  0  0  0  0  0  0  0  0  0  0
    3.0090   -2.7688    0.5251 H   0  0  0  0  0  0  0  0  0  0  0  0
    6.6106    0.1581    0.0427 H   0  0  0  0  0  0  0  0  0  0  0  0
    5.4463    0.8740    1.2210 H   0  0  0  0  0  0  0  0  0  0  0  0
    5.3223    1.0253   -1.8543 H   0  0  0  0  0  0  0  0  0  0  0  0
    5.5486    2.3938   -0.6999 H   0  0  0  0  0  0  0  0  0  0  0  0
    0.9917    1.5006   -1.0247 H   0  0  0  0  0  0  0  0  0  0  0  0
  1  2  1  0
  2  3  2  0
  3  4  1  0
  4  5  2  0
  5  6  1  0
  6  7  2  0
  7  8  1  0
  8  9  1  0
  9 10  1  0
 10 11  1  0
 11 12  2  0
 12 13  1  0
 13 14  1  0
 14 15  1  0
 15 16  1  0
 16 17  1  0
 17 18  1  0
 18 19  1  0
  7  2  1  0
 18 13  2  0
 19 10  2  0
  3 20  1  0
  4 21  1  0
  5 22  1  0
  6 23  1  0
  8 24  1  0
  8 25  1  0
  9 26  1  0
  9 27  1  0
 11 28  1  0
 12 29  1  0
 15 30  1  0
 15 31  1  0
 16 32  1  0
 16 33  1  0
 19 34  1  0
M  RAD  1   1   3
M  END
$$$$
