
     RDKit          3D

 34 36  0  0  0  0  0  0  0  0999 V2000
   -3.5076   -1.1599    2.3772 N   0  0  0  0  0  1  0  0  0  0  0  0
   -3.1121   -0.1421    1.4602 C   0  0  0  0  0  0  0  0  0  0  0  0
   -3.3015    1.2009    1.8075 C   0  0  0  0  0  0  0  0  0  0  0  0
   -2.9109    2.2167    0.9317 C   0  0  0  0  0  0  0  0  0  0  0  0
   -2.3284    1.8958   -0.2958 C   0  0  0  0  0  0  0  0  0  0  0  0
   -2.1378    0.5584   -0.6523 C   0  0  0  0  0  0  0  0  0  0  0  0
   -2.5316   -0.4742    0.2175 C   0  0  0  0  0  0  0  0  0  0  0  0
   -2.2657   -1.9124   -0.1650 C   0  0  0  0  0  0  0  0  0  0  0  0
   -0.9741   -2.4449    0.4723 C   0  0  0  0  0  0  0  0  0  0  0  0
    0.2399   -1.6981   -0.0185 C   0  0  0  0  0  0  0  0  0  0  0  0
    0.8114   -2.0174   -1.2628 C   0  0  0  0  0  0  0  0  0  0  0  0
    1.9082   -1.2941   -1.7432 C   0  0  0  0  0  0  0  0  0  0  0  0
    2.4344   -0.2440   -0.9871 C   0  0  0  0  0  0  0  0  0  0  0  0
    3.5452    0.4767   -1.4375 O   0  0  0  0  0  0  0  0  0  0  0  0
    4.2516    1.3643   -0.5670 C   0  0  0  0  0  0  0  0  0  0  0  0
    3.2674    2.1125    0.3417 C   0  0  0  0  0  0  0  0  0  0  0  0
    2.3585    1.1920    0.9508 O   0  0  0  0  0  0  0  0  0  0  0  0
    1.8477    0.1034    0.2368 C   0  0  0  0  0  0  0  0  0  0  0  0
    0.7644   -0.6290    0.7290 C   0  0  0  0  0  0  0  0  0  0  0  0
   -3.7482    1.4586    2.7596 H   0  0  0  0  0  0  0  0  0  0  0  0
   -3.0566    3.2534    1.2064 H   0  0  0  0  0  0  0  0  0  0  0  0
   -2.0201    2.6841   -0.9702 H   0  0  0  0  0  0  0  0  0  0  0  0
   -1.6715    0.3276   -1.6023 H   0  0  0  0  0  0  0  0  0  0  0  0
   -3.1177   -2.5481    0.1589 H   0  0  0  0  0  0  0  0  0  0  0  0
   -2.2039   -2.0146   -1.2710 H   0  0  0  0  0  0  0  0  0  0  0  0
   -0.8681   -3.5225    0.2203 H   0  0  0  0  0  0  0  0  0  0  0  0
   -1.0461   -2.3824    1.5802 H   0  0  0  0  0  0  0  0  0  0  0  0
    0.4054   -2.8247   -1.8598 H   0  0  0  0  0  0  0  0  0  0  0  0
    2.3508   -1.5527   -2.6966 H   0  0  0  0  0  0  0  0  0  0  0  0
    4.8411    2.0859   -1.1707 H   0  0  0  0  0  0  0  0  0  0  0  0
    4.9507    0.7725    0.0621 H   0  0  0  0  0  0  0  0  0  0  0  0
    2.6897    2.8403   -0.2677 H   0  0  0  0  0  0  0  0  0  0  0  0
    3.8183    2.6673    1.1299 H   0  0  0  0  0  0  0  0  0  0  0  0
    0.3171   -0.3493    1.6749 H   0  0  0  0  0  0  0  0  0  0  0  0
  1  2  1  0
  2  3  2  0
  3  4  1  0
  4  5  2  0
  5  6  1  0
  6  7  2  0
  7  8  1  0
  8  9  1  0
  9 10  1  0
 10 11  1  0
 11 12  2  0
 12 13  1  0
 13 14  1  0
 14 15  1  0
 15 16  1  0
 16 17  1  0
 17 18  1  0
 18 19  1  0
  7  2  1  0
 18 13  2  0
 19 10  2  0
  3 20  1  0
  4 21  1  0
  5 22  1  0
  6 23  1  0
  8 24  1  0
  8 25  1  0
  9 26  1  0
  9 27  1  0
 11 28  1  0
 12 29  1  0
 15 30  1  0
 15 31  1  0
 16 32  1  0
 16 33  1  0
 19 34  1  0
M  RAD  1   1   3
M  END
$$$$
