
     RDKit          3D

 34 36  0  0  0  0  0  0  0  0999 V2000
   -3.5252   -0.8907   -2.4293 N   0  0  0  0  0  1  0  0  0  0  0  0
   -3.0927    0.0714   -1.4698 C   0  0  0  0  0  0  0  0  0  0  0  0
   -3.2082    1.4342   -1.7695 C   0  0  0  0  0  0  0  0  0  0  0  0
   -2.7802    2.3960   -0.8514 C   0  0  0  0  0  0  0  0  0  0  0  0
   -2.2338    2.0011    0.3712 C   0  0  0  0  0  0  0  0  0  0  0  0
   -2.1167    0.6437    0.6803 C   0  0  0  0  0  0  0  0  0  0  0  0
   -2.5491   -0.3350   -0.2325 C   0  0  0  0  0  0  0  0  0  0  0  0
   -2.3636   -1.7980    0.1004 C   0  0  0  0  0  0  0  0  0  0  0  0
   -1.0910   -2.3731   -0.5379 C   0  0  0  0  0  0  0  0  0  0  0  0
    0.1515   -1.7090   -0.0017 C   0  0  0  0  0  0  0  0  0  0  0  0
    0.6869   -2.1050    1.2367 C   0  0  0  0  0  0  0  0  0  0  0  0
    1.8045   -1.4504    1.7652 C   0  0  0  0  0  0  0  0  0  0  0  0
    2.3850   -0.3898    1.0657 C   0  0  0  0  0  0  0  0  0  0  0  0
    3.4798    0.3022    1.5934 O   0  0  0  0  0  0  0  0  0  0  0  0
    3.9014    1.5502    1.0371 C   0  0  0  0  0  0  0  0  0  0  0  0
    3.7816    1.5178   -0.4922 C   0  0  0  0  0  0  0  0  0  0  0  0
    2.4916    1.0366   -0.8779 O   0  0  0  0  0  0  0  0  0  0  0  0
    1.8701   -0.0028   -0.1784 C   0  0  0  0  0  0  0  0  0  0  0  0
    0.7480   -0.6477   -0.7050 C   0  0  0  0  0  0  0  0  0  0  0  0
   -3.6264    1.7489   -2.7174 H   0  0  0  0  0  0  0  0  0  0  0  0
   -2.8689    3.4481   -1.0893 H   0  0  0  0  0  0  0  0  0  0  0  0
   -1.8963    2.7475    1.0786 H   0  0  0  0  0  0  0  0  0  0  0  0
   -1.6776    0.3547    1.6273 H   0  0  0  0  0  0  0  0  0  0  0  0
   -2.3248   -1.9432    1.2026 H   0  0  0  0  0  0  0  0  0  0  0  0
   -3.2417   -2.3765   -0.2589 H   0  0  0  0  0  0  0  0  0  0  0  0
   -1.0447   -3.4633   -0.3251 H   0  0  0  0  0  0  0  0  0  0  0  0
   -1.1417   -2.2664   -1.6436 H   0  0  0  0  0  0  0  0  0  0  0  0
    0.2306   -2.9120    1.7965 H   0  0  0  0  0  0  0  0  0  0  0  0
    2.2054   -1.7536    2.7239 H   0  0  0  0  0  0  0  0  0  0  0  0
    3.2539    2.3603    1.4362 H   0  0  0  0  0  0  0  0  0  0  0  0
    4.9510    1.7546    1.3357 H   0  0  0  0  0  0  0  0  0  0  0  0
    4.5584    0.8384   -0.9043 H   0  0  0  0  0  0  0  0  0  0  0  0
    3.9398    2.5337   -0.9111 H   0  0  0  0  0  0  0  0  0  0  0  0
    0.3429   -0.3228   -1.6555 H   0  0  0  0  0  0  0  0  0  0  0  0
  1  2  1  0
  2  3  2  0
  3  4  1  0
  4  5  2  0
  5  6  1  0
  6  7  2  0
  7  8  1  0
  8  9  1  0
  9 10  1  0
 10 11  1  0
 11 12  2  0
 12 13  1  0
 13 14  1  0
 14 15  1  0
 15 16  1  0
 16 17  1  0
 17 18  1  0
 18 19  1  0
  7  2  1  0
 18 13  2  0
 19 10  2  0
  3 20  1  0
  4 21  1  0
  5 22  1  0
  6 23  1  0
  8 24  1  0
  8 25  1  0
  9 26  1  0
  9 27  1  0
 11 28  1  0
 12 29  1  0
 15 30  1  0
 15 31  1  0
 16 32  1  0
 16 33  1  0
 19 34  1  0
M  RAD  1   1   3
M  END
$$$$
