
     RDKit          3D

 34 36  0  0  0  0  0  0  0  0999 V2000
    4.0625   -1.6063   -0.1939 N   0  0  0  0  0  1  0  0  0  0  0  0
    3.4001   -0.3880    0.1379 C   0  0  0  0  0  0  0  0  0  0  0  0
    3.6847    0.2329    1.3601 C   0  0  0  0  0  0  0  0  0  0  0  0
    3.0398    1.4205    1.7137 C   0  0  0  0  0  0  0  0  0  0  0  0
    2.1066    1.9938    0.8481 C   0  0  0  0  0  0  0  0  0  0  0  0
    1.8178    1.3829   -0.3748 C   0  0  0  0  0  0  0  0  0  0  0  0
    2.4641    0.1902   -0.7459 C   0  0  0  0  0  0  0  0  0  0  0  0
    2.0969   -0.4816   -2.0495 C   0  0  0  0  0  0  0  0  0  0  0  0
    1.0671   -1.6021   -1.8455 C   0  0  0  0  0  0  0  0  0  0  0  0
   -0.2414   -1.0687   -1.3203 C   0  0  0  0  0  0  0  0  0  0  0  0
   -1.1694   -0.4815   -2.1984 C   0  0  0  0  0  0  0  0  0  0  0  0
   -2.3579    0.0682   -1.7064 C   0  0  0  0  0  0  0  0  0  0  0  0
   -2.6196    0.0450   -0.3344 C   0  0  0  0  0  0  0  0  0  0  0  0
   -3.7841    0.6217    0.1824 O   0  0  0  0  0  0  0  0  0  0  0  0
   -3.9310    0.8569    1.5851 C   0  0  0  0  0  0  0  0  0  0  0  0
   -3.3267   -0.3047    2.3849 C   0  0  0  0  0  0  0  0  0  0  0  0
   -2.0113   -0.6018    1.9095 O   0  0  0  0  0  0  0  0  0  0  0  0
   -1.7096   -0.5567    0.5446 C   0  0  0  0  0  0  0  0  0  0  0  0
   -0.5169   -1.0979    0.0581 C   0  0  0  0  0  0  0  0  0  0  0  0
    4.4037   -0.2076    2.0395 H   0  0  0  0  0  0  0  0  0  0  0  0
    3.2611    1.8948    2.6611 H   0  0  0  0  0  0  0  0  0  0  0  0
    1.6028    2.9103    1.1266 H   0  0  0  0  0  0  0  0  0  0  0  0
    1.0809    1.8338   -1.0281 H   0  0  0  0  0  0  0  0  0  0  0  0
    3.0090   -0.9095   -2.5184 H   0  0  0  0  0  0  0  0  0  0  0  0
    1.6965    0.2644   -2.7711 H   0  0  0  0  0  0  0  0  0  0  0  0
    0.8917   -2.1091   -2.8192 H   0  0  0  0  0  0  0  0  0  0  0  0
    1.4777   -2.3712   -1.1553 H   0  0  0  0  0  0  0  0  0  0  0  0
   -0.9654   -0.4396   -3.2612 H   0  0  0  0  0  0  0  0  0  0  0  0
   -3.0633    0.5278   -2.3867 H   0  0  0  0  0  0  0  0  0  0  0  0
   -3.4011    1.7968    1.8509 H   0  0  0  0  0  0  0  0  0  0  0  0
   -5.0071    0.9738    1.8317 H   0  0  0  0  0  0  0  0  0  0  0  0
   -3.2823   -0.0459    3.4635 H   0  0  0  0  0  0  0  0  0  0  0  0
   -3.9669   -1.2044    2.2611 H   0  0  0  0  0  0  0  0  0  0  0  0
    0.1911   -1.5373    0.7502 H   0  0  0  0  0  0  0  0  0  0  0  0
  1  2  1  0
  2  3  2  0
  3  4  1  0
  4  5  2  0
  5  6  1  0
  6  7  2  0
  7  8  1  0
  8  9  1  0
  9 10  1  0
 10 11  1  0
 11 12  2  0
 12 13  1  0
 13 14  1  0
 14 15  1  0
 15 16  1  0
 16 17  1  0
 17 18  1  0
 18 19  1  0
  7  2  1  0
 18 13  2  0
 19 10  2  0
  3 20  1  0
  4 21  1  0
  5 22  1  0
  6 23  1  0
  8 24  1  0
  8 25  1  0
  9 26  1  0
  9 27  1  0
 11 28  1  0
 12 29  1  0
 15 30  1  0
 15 31  1  0
 16 32  1  0
 16 33  1  0
 19 34  1  0
M  RAD  1   1   3
M  END
$$$$
