
     RDKit          3D

 34 36  0  0  0  0  0  0  0  0999 V2000
    3.3636    1.6181    1.9134 N   0  0  0  0  0  1  0  0  0  0  0  0
    3.8926    0.6061    1.0591 C   0  0  0  0  0  0  0  0  0  0  0  0
    5.2724    0.5629    0.8254 C   0  0  0  0  0  0  0  0  0  0  0  0
    5.8134   -0.4091   -0.0196 C   0  0  0  0  0  0  0  0  0  0  0  0
    4.9776   -1.3402   -0.6393 C   0  0  0  0  0  0  0  0  0  0  0  0
    3.5992   -1.3051   -0.4120 C   0  0  0  0  0  0  0  0  0  0  0  0
    3.0436   -0.3417    0.4480 C   0  0  0  0  0  0  0  0  0  0  0  0
    1.5491   -0.3024    0.6527 C   0  0  0  0  0  0  0  0  0  0  0  0
    0.8916    0.6465   -0.3539 C   0  0  0  0  0  0  0  0  0  0  0  0
   -0.5984    0.6872   -0.1464 C   0  0  0  0  0  0  0  0  0  0  0  0
   -1.1635    1.6093    0.7525 C   0  0  0  0  0  0  0  0  0  0  0  0
   -2.5443    1.6226    0.9764 C   0  0  0  0  0  0  0  0  0  0  0  0
   -3.3655    0.7069    0.3142 C   0  0  0  0  0  0  0  0  0  0  0  0
   -4.7443    0.6823    0.5473 O   0  0  0  0  0  0  0  0  0  0  0  0
   -5.5488   -0.4126    0.1014 C   0  0  0  0  0  0  0  0  0  0  0  0
   -5.0758   -0.8929   -1.2769 C   0  0  0  0  0  0  0  0  0  0  0  0
   -3.6589   -1.0854   -1.2749 O   0  0  0  0  0  0  0  0  0  0  0  0
   -2.8118   -0.2050   -0.5942 C   0  0  0  0  0  0  0  0  0  0  0  0
   -1.4311   -0.2303   -0.8102 C   0  0  0  0  0  0  0  0  0  0  0  0
    5.9267    1.2861    1.2960 H   0  0  0  0  0  0  0  0  0  0  0  0
    6.8805   -0.4373   -0.1981 H   0  0  0  0  0  0  0  0  0  0  0  0
    5.3978   -2.0881   -1.2994 H   0  0  0  0  0  0  0  0  0  0  0  0
    2.9640   -2.0288   -0.9080 H   0  0  0  0  0  0  0  0  0  0  0  0
    1.1247   -1.3239    0.5319 H   0  0  0  0  0  0  0  0  0  0  0  0
    1.3138    0.0228    1.6896 H   0  0  0  0  0  0  0  0  0  0  0  0
    1.3145    1.6689   -0.2396 H   0  0  0  0  0  0  0  0  0  0  0  0
    1.1186    0.3094   -1.3895 H   0  0  0  0  0  0  0  0  0  0  0  0
   -0.5335    2.3121    1.2837 H   0  0  0  0  0  0  0  0  0  0  0  0
   -2.9721    2.3306    1.6746 H   0  0  0  0  0  0  0  0  0  0  0  0
   -6.6122   -0.0972    0.0538 H   0  0  0  0  0  0  0  0  0  0  0  0
   -5.4578   -1.2473    0.8292 H   0  0  0  0  0  0  0  0  0  0  0  0
   -5.3349   -0.1265   -2.0386 H   0  0  0  0  0  0  0  0  0  0  0  0
   -5.5797   -1.8451   -1.5453 H   0  0  0  0  0  0  0  0  0  0  0  0
   -1.0112   -0.9530   -1.4991 H   0  0  0  0  0  0  0  0  0  0  0  0
  1  2  1  0
  2  3  2  0
  3  4  1  0
  4  5  2  0
  5  6  1  0
  6  7  2  0
  7  8  1  0
  8  9  1  0
  9 10  1  0
 10 11  1  0
 11 12  2  0
 12 13  1  0
 13 14  1  0
 14 15  1  0
 15 16  1  0
 16 17  1  0
 17 18  1  0
 18 19  1  0
  7  2  1  0
 18 13  2  0
 19 10  2  0
  3 20  1  0
  4 21  1  0
  5 22  1  0
  6 23  1  0
  8 24  1  0
  8 25  1  0
  9 26  1  0
  9 27  1  0
 11 28  1  0
 12 29  1  0
 15 30  1  0
 15 31  1  0
 16 32  1  0
 16 33  1  0
 19 34  1  0
M  RAD  1   1   3
M  END
$$$$
