
     RDKit          3D

 34 36  0  0  0  0  0  0  0  0999 V2000
   -3.5230   -1.7456    1.5100 N   0  0  0  0  0  1  0  0  0  0  0  0
   -3.9591   -0.5520    0.8628 C   0  0  0  0  0  0  0  0  0  0  0  0
   -5.3240   -0.3746    0.6057 C   0  0  0  0  0  0  0  0  0  0  0  0
   -5.7747    0.7788   -0.0408 C   0  0  0  0  0  0  0  0  0  0  0  0
   -4.8632    1.7591   -0.4379 C   0  0  0  0  0  0  0  0  0  0  0  0
   -3.4990    1.5910   -0.1855 C   0  0  0  0  0  0  0  0  0  0  0  0
   -3.0338    0.4420    0.4778 C   0  0  0  0  0  0  0  0  0  0  0  0
   -1.5532    0.2670    0.7104 C   0  0  0  0  0  0  0  0  0  0  0  0
   -0.9124   -0.5027   -0.4484 C   0  0  0  0  0  0  0  0  0  0  0  0
    0.5636   -0.6794   -0.2135 C   0  0  0  0  0  0  0  0  0  0  0  0
    1.0390   -1.7964    0.4963 C   0  0  0  0  0  0  0  0  0  0  0  0
    2.4070   -1.9426    0.7500 C   0  0  0  0  0  0  0  0  0  0  0  0
    3.3048   -0.9680    0.3078 C   0  0  0  0  0  0  0  0  0  0  0  0
    4.6725   -1.0789    0.5780 O   0  0  0  0  0  0  0  0  0  0  0  0
    5.5555    0.0289    0.3832 C   0  0  0  0  0  0  0  0  0  0  0  0
    5.1652    0.8034   -0.8825 C   0  0  0  0  0  0  0  0  0  0  0  0
    3.7627    1.0822   -0.8799 O   0  0  0  0  0  0  0  0  0  0  0  0
    2.8404    0.1401   -0.4131 C   0  0  0  0  0  0  0  0  0  0  0  0
    1.4730    0.2964   -0.6566 C   0  0  0  0  0  0  0  0  0  0  0  0
   -6.0367   -1.1335    0.9035 H   0  0  0  0  0  0  0  0  0  0  0  0
   -6.8306    0.9105   -0.2385 H   0  0  0  0  0  0  0  0  0  0  0  0
   -5.2135    2.6487   -0.9452 H   0  0  0  0  0  0  0  0  0  0  0  0
   -2.8043    2.3566   -0.5086 H   0  0  0  0  0  0  0  0  0  0  0  0
   -1.0663    1.2627    0.8089 H   0  0  0  0  0  0  0  0  0  0  0  0
   -1.3777   -0.2725    1.6666 H   0  0  0  0  0  0  0  0  0  0  0  0
   -1.3976   -1.4981   -0.5536 H   0  0  0  0  0  0  0  0  0  0  0  0
   -1.0789    0.0477   -1.4009 H   0  0  0  0  0  0  0  0  0  0  0  0
    0.3494   -2.5490    0.8583 H   0  0  0  0  0  0  0  0  0  0  0  0
    2.7657   -2.8015    1.3027 H   0  0  0  0  0  0  0  0  0  0  0  0
    6.6000   -0.3383    0.3017 H   0  0  0  0  0  0  0  0  0  0  0  0
    5.4842    0.7061    1.2613 H   0  0  0  0  0  0  0  0  0  0  0  0
    5.7332    1.7556   -0.9403 H   0  0  0  0  0  0  0  0  0  0  0  0
    5.4094    0.1890   -1.7756 H   0  0  0  0  0  0  0  0  0  0  0  0
    1.1226    1.1673   -1.1971 H   0  0  0  0  0  0  0  0  0  0  0  0
  1  2  1  0
  2  3  2  0
  3  4  1  0
  4  5  2  0
  5  6  1  0
  6  7  2  0
  7  8  1  0
  8  9  1  0
  9 10  1  0
 10 11  1  0
 11 12  2  0
 12 13  1  0
 13 14  1  0
 14 15  1  0
 15 16  1  0
 16 17  1  0
 17 18  1  0
 18 19  1  0
  7  2  1  0
 18 13  2  0
 19 10  2  0
  3 20  1  0
  4 21  1  0
  5 22  1  0
  6 23  1  0
  8 24  1  0
  8 25  1  0
  9 26  1  0
  9 27  1  0
 11 28  1  0
 12 29  1  0
 15 30  1  0
 15 31  1  0
 16 32  1  0
 16 33  1  0
 19 34  1  0
M  RAD  1   1   3
M  END
$$$$
