
     RDKit          3D

 28 29  0  0  0  0  0  0  0  0999 V2000
   -2.2550   -1.4389    2.2972 N   0  0  0  0  0  1  0  0  0  0  0  0
   -2.2895   -0.6272    1.1253 C   0  0  0  0  0  0  0  0  0  0  0  0
   -3.1955    0.4380    1.0591 C   0  0  0  0  0  0  0  0  0  0  0  0
   -3.2407    1.2550   -0.0730 C   0  0  0  0  0  0  0  0  0  0  0  0
   -2.3798    1.0124   -1.1455 C   0  0  0  0  0  0  0  0  0  0  0  0
   -2.4191    1.8119   -2.2398 F   0  0  0  0  0  0  0  0  0  0  0  0
   -1.4737   -0.0500   -1.0892 C   0  0  0  0  0  0  0  0  0  0  0  0
   -1.4223   -0.8840    0.0420 C   0  0  0  0  0  0  0  0  0  0  0  0
   -0.4007   -1.9965    0.1016 C   0  0  0  0  0  0  0  0  0  0  0  0
    0.8554   -1.5787    0.8794 C   0  0  0  0  0  0  0  0  0  0  0  0
    1.5883   -0.4526    0.1957 C   0  0  0  0  0  0  0  0  0  0  0  0
    2.4344   -0.7180   -0.8938 C   0  0  0  0  0  0  0  0  0  0  0  0
    3.0789    0.3311   -1.5567 C   0  0  0  0  0  0  0  0  0  0  0  0
    2.8777    1.6505   -1.1422 C   0  0  0  0  0  0  0  0  0  0  0  0
    2.0304    1.9235   -0.0648 C   0  0  0  0  0  0  0  0  0  0  0  0
    1.3853    0.8775    0.6018 C   0  0  0  0  0  0  0  0  0  0  0  0
   -3.8633    0.6361    1.8881 H   0  0  0  0  0  0  0  0  0  0  0  0
   -3.9416    2.0786   -0.1165 H   0  0  0  0  0  0  0  0  0  0  0  0
   -0.8033   -0.2174   -1.9234 H   0  0  0  0  0  0  0  0  0  0  0  0
   -0.1139   -2.3156   -0.9248 H   0  0  0  0  0  0  0  0  0  0  0  0
   -0.8487   -2.8882    0.5904 H   0  0  0  0  0  0  0  0  0  0  0  0
    1.5321   -2.4567    0.9646 H   0  0  0  0  0  0  0  0  0  0  0  0
    0.5784   -1.2886    1.9166 H   0  0  0  0  0  0  0  0  0  0  0  0
    2.5895   -1.7352   -1.2315 H   0  0  0  0  0  0  0  0  0  0  0  0
    3.7309    0.1214   -2.3948 H   0  0  0  0  0  0  0  0  0  0  0  0
    3.3752    2.4615   -1.6581 H   0  0  0  0  0  0  0  0  0  0  0  0
    1.8699    2.9461    0.2510 H   0  0  0  0  0  0  0  0  0  0  0  0
    0.7207    1.1041    1.4264 H   0  0  0  0  0  0  0  0  0  0  0  0
  1  2  1  0
  2  3  1  0
  3  4  2  0
  4  5  1  0
  5  6  1  0
  5  7  2  0
  7  8  1  0
  8  9  1  0
  9 10  1  0
 10 11  1  0
 11 12  2  0
 12 13  1  0
 13 14  2  0
 14 15  1  0
 15 16  2  0
  8  2  2  0
 16 11  1  0
  3 17  1  0
  4 18  1  0
  7 19  1  0
  9 20  1  0
  9 21  1  0
 10 22  1  0
 10 23  1  0
 12 24  1  0
 13 25  1  0
 14 26  1  0
 15 27  1  0
 16 28  1  0
M  RAD  1   1   3
M  END
$$$$
