
     RDKit          3D

 28 29  0  0  0  0  0  0  0  0999 V2000
   -2.0471    2.1477   -1.0754 N   0  0  0  0  0  1  0  0  0  0  0  0
   -2.6447    0.9962   -0.4831 C   0  0  0  0  0  0  0  0  0  0  0  0
   -3.9913    1.0453   -0.1031 C   0  0  0  0  0  0  0  0  0  0  0  0
   -4.5958   -0.0639    0.4932 C   0  0  0  0  0  0  0  0  0  0  0  0
   -3.8563   -1.2272    0.7174 C   0  0  0  0  0  0  0  0  0  0  0  0
   -4.4425   -2.2995    1.3046 F   0  0  0  0  0  0  0  0  0  0  0  0
   -2.5113   -1.2855    0.3410 C   0  0  0  0  0  0  0  0  0  0  0  0
   -1.8952   -0.1814   -0.2738 C   0  0  0  0  0  0  0  0  0  0  0  0
   -0.4336   -0.2560   -0.6415 C   0  0  0  0  0  0  0  0  0  0  0  0
    0.4381    0.2688    0.5033 C   0  0  0  0  0  0  0  0  0  0  0  0
    1.8954    0.1978    0.1341 C   0  0  0  0  0  0  0  0  0  0  0  0
    2.5102    1.2704   -0.5334 C   0  0  0  0  0  0  0  0  0  0  0  0
    3.8559    1.1898   -0.9052 C   0  0  0  0  0  0  0  0  0  0  0  0
    4.5930    0.0364   -0.6226 C   0  0  0  0  0  0  0  0  0  0  0  0
    3.9844   -1.0402    0.0287 C   0  0  0  0  0  0  0  0  0  0  0  0
    2.6390   -0.9638    0.4022 C   0  0  0  0  0  0  0  0  0  0  0  0
   -4.5699    1.9460   -0.2663 H   0  0  0  0  0  0  0  0  0  0  0  0
   -5.6369   -0.0187    0.7859 H   0  0  0  0  0  0  0  0  0  0  0  0
   -1.9480   -2.1912    0.5299 H   0  0  0  0  0  0  0  0  0  0  0  0
   -0.2413    0.3329   -1.5649 H   0  0  0  0  0  0  0  0  0  0  0  0
   -0.1547   -1.3091   -0.8678 H   0  0  0  0  0  0  0  0  0  0  0  0
    0.1610    1.3206    0.7363 H   0  0  0  0  0  0  0  0  0  0  0  0
    0.2525   -0.3323    1.4210 H   0  0  0  0  0  0  0  0  0  0  0  0
    1.9475    2.1659   -0.7665 H   0  0  0  0  0  0  0  0  0  0  0  0
    4.3264    2.0202   -1.4155 H   0  0  0  0  0  0  0  0  0  0  0  0
    5.6340   -0.0249   -0.9122 H   0  0  0  0  0  0  0  0  0  0  0  0
    4.5544   -1.9355    0.2409 H   0  0  0  0  0  0  0  0  0  0  0  0
    2.1766   -1.8085    0.8978 H   0  0  0  0  0  0  0  0  0  0  0  0
  1  2  1  0
  2  3  1  0
  3  4  2  0
  4  5  1  0
  5  6  1  0
  5  7  2  0
  7  8  1  0
  8  9  1  0
  9 10  1  0
 10 11  1  0
 11 12  2  0
 12 13  1  0
 13 14  2  0
 14 15  1  0
 15 16  2  0
  8  2  2  0
 16 11  1  0
  3 17  1  0
  4 18  1  0
  7 19  1  0
  9 20  1  0
  9 21  1  0
 10 22  1  0
 10 23  1  0
 12 24  1  0
 13 25  1  0
 14 26  1  0
 15 27  1  0
 16 28  1  0
M  RAD  1   1   3
M  END
$$$$
