
     RDKit          3D

 28 29  0  0  0  0  0  0  0  0999 V2000
   -1.9705   -1.0498    2.2922 N   0  0  0  0  0  1  0  0  0  0  0  0
   -2.5879   -0.2662    1.2732 C   0  0  0  0  0  0  0  0  0  0  0  0
   -3.9808   -0.2995    1.1364 C   0  0  0  0  0  0  0  0  0  0  0  0
   -4.6085    0.4470    0.1364 C   0  0  0  0  0  0  0  0  0  0  0  0
   -3.8468    1.2276   -0.7359 C   0  0  0  0  0  0  0  0  0  0  0  0
   -4.4573    1.9443   -1.7116 F   0  0  0  0  0  0  0  0  0  0  0  0
   -2.4555    1.2673   -0.6067 C   0  0  0  0  0  0  0  0  0  0  0  0
   -1.8129    0.5326    0.4051 C   0  0  0  0  0  0  0  0  0  0  0  0
   -0.3075    0.5651    0.5045 C   0  0  0  0  0  0  0  0  0  0  0  0
    0.3116   -0.5757   -0.3088 C   0  0  0  0  0  0  0  0  0  0  0  0
    1.8127   -0.5447   -0.2060 C   0  0  0  0  0  0  0  0  0  0  0  0
    2.5703    0.2117   -1.1160 C   0  0  0  0  0  0  0  0  0  0  0  0
    3.9627    0.2657   -0.9988 C   0  0  0  0  0  0  0  0  0  0  0  0
    4.6065   -0.4256    0.0314 C   0  0  0  0  0  0  0  0  0  0  0  0
    3.8584   -1.1687    0.9488 C   0  0  0  0  0  0  0  0  0  0  0  0
    2.4658   -1.2254    0.8352 C   0  0  0  0  0  0  0  0  0  0  0  0
   -4.5783   -0.9082    1.8037 H   0  0  0  0  0  0  0  0  0  0  0  0
   -5.6857    0.4155    0.0352 H   0  0  0  0  0  0  0  0  0  0  0  0
   -1.8773    1.8698   -1.2966 H   0  0  0  0  0  0  0  0  0  0  0  0
    0.0747    1.5397    0.1275 H   0  0  0  0  0  0  0  0  0  0  0  0
    0.0070    0.4863    1.5681 H   0  0  0  0  0  0  0  0  0  0  0  0
   -0.0697   -1.5527    0.0619 H   0  0  0  0  0  0  0  0  0  0  0  0
    0.0052   -0.4847   -1.3745 H   0  0  0  0  0  0  0  0  0  0  0  0
    2.0828    0.7594   -1.9130 H   0  0  0  0  0  0  0  0  0  0  0  0
    4.5425    0.8463   -1.7046 H   0  0  0  0  0  0  0  0  0  0  0  0
    5.6842   -0.3817    0.1214 H   0  0  0  0  0  0  0  0  0  0  0  0
    4.3575   -1.6981    1.7501 H   0  0  0  0  0  0  0  0  0  0  0  0
    1.8968   -1.7970    1.5581 H   0  0  0  0  0  0  0  0  0  0  0  0
  1  2  1  0
  2  3  1  0
  3  4  2  0
  4  5  1  0
  5  6  1  0
  5  7  2  0
  7  8  1  0
  8  9  1  0
  9 10  1  0
 10 11  1  0
 11 12  2  0
 12 13  1  0
 13 14  2  0
 14 15  1  0
 15 16  2  0
  8  2  2  0
 16 11  1  0
  3 17  1  0
  4 18  1  0
  7 19  1  0
  9 20  1  0
  9 21  1  0
 10 22  1  0
 10 23  1  0
 12 24  1  0
 13 25  1  0
 14 26  1  0
 15 27  1  0
 16 28  1  0
M  RAD  1   1   3
M  END
$$$$
