
     RDKit          3D

 28 29  0  0  0  0  0  0  0  0999 V2000
    1.9045    2.4580   -0.5076 N   0  0  0  0  0  1  0  0  0  0  0  0
    2.5758    1.2056   -0.3869 C   0  0  0  0  0  0  0  0  0  0  0  0
    3.9505    1.1909   -0.1219 C   0  0  0  0  0  0  0  0  0  0  0  0
    4.6282   -0.0227    0.0162 C   0  0  0  0  0  0  0  0  0  0  0  0
    3.9348   -1.2289   -0.1053 C   0  0  0  0  0  0  0  0  0  0  0  0
    4.5928   -2.4057    0.0381 F   0  0  0  0  0  0  0  0  0  0  0  0
    2.5623   -1.2240   -0.3701 C   0  0  0  0  0  0  0  0  0  0  0  0
    1.8713   -0.0095   -0.5263 C   0  0  0  0  0  0  0  0  0  0  0  0
    0.3838   -0.0286   -0.7792 C   0  0  0  0  0  0  0  0  0  0  0  0
   -0.3888    0.0418    0.5414 C   0  0  0  0  0  0  0  0  0  0  0  0
   -1.8722    0.0266    0.2880 C   0  0  0  0  0  0  0  0  0  0  0  0
   -2.5656   -1.1928    0.2095 C   0  0  0  0  0  0  0  0  0  0  0  0
   -3.9381   -1.2062   -0.0587 C   0  0  0  0  0  0  0  0  0  0  0  0
   -4.6244   -0.0054   -0.2598 C   0  0  0  0  0  0  0  0  0  0  0  0
   -3.9386    1.2108   -0.1972 C   0  0  0  0  0  0  0  0  0  0  0  0
   -2.5663    1.2288    0.0708 C   0  0  0  0  0  0  0  0  0  0  0  0
    4.4944    2.1215   -0.0185 H   0  0  0  0  0  0  0  0  0  0  0  0
    5.6908   -0.0270    0.2225 H   0  0  0  0  0  0  0  0  0  0  0  0
    2.0360   -2.1672   -0.4522 H   0  0  0  0  0  0  0  0  0  0  0  0
    0.0963    0.8241   -1.4324 H   0  0  0  0  0  0  0  0  0  0  0  0
    0.1053   -0.9585   -1.3231 H   0  0  0  0  0  0  0  0  0  0  0  0
   -0.1080   -0.8206    1.1858 H   0  0  0  0  0  0  0  0  0  0  0  0
   -0.1117    0.9683    1.0911 H   0  0  0  0  0  0  0  0  0  0  0  0
   -2.0436   -2.1306    0.3542 H   0  0  0  0  0  0  0  0  0  0  0  0
   -4.4688   -2.1479   -0.1141 H   0  0  0  0  0  0  0  0  0  0  0  0
   -5.6863   -0.0177   -0.4687 H   0  0  0  0  0  0  0  0  0  0  0  0
   -4.4699    2.1397   -0.3598 H   0  0  0  0  0  0  0  0  0  0  0  0
   -2.0445    2.1772    0.1073 H   0  0  0  0  0  0  0  0  0  0  0  0
  1  2  1  0
  2  3  1  0
  3  4  2  0
  4  5  1  0
  5  6  1  0
  5  7  2  0
  7  8  1  0
  8  9  1  0
  9 10  1  0
 10 11  1  0
 11 12  2  0
 12 13  1  0
 13 14  2  0
 14 15  1  0
 15 16  2  0
  8  2  2  0
 16 11  1  0
  3 17  1  0
  4 18  1  0
  7 19  1  0
  9 20  1  0
  9 21  1  0
 10 22  1  0
 10 23  1  0
 12 24  1  0
 13 25  1  0
 14 26  1  0
 15 27  1  0
 16 28  1  0
M  RAD  1   1   3
M  END
$$$$
