
     RDKit          3D

 28 29  0  0  0  0  0  0  0  0999 V2000
   -1.8715    1.5496   -1.8609 N   0  0  0  0  0  1  0  0  0  0  0  0
   -2.5608    0.7583   -0.8953 C   0  0  0  0  0  0  0  0  0  0  0  0
   -3.9278    0.9761   -0.6848 C   0  0  0  0  0  0  0  0  0  0  0  0
   -4.6225    0.2248    0.2661 C   0  0  0  0  0  0  0  0  0  0  0  0
   -3.9537   -0.7454    1.0157 C   0  0  0  0  0  0  0  0  0  0  0  0
   -4.6278   -1.4671    1.9446 F   0  0  0  0  0  0  0  0  0  0  0  0
   -2.5890   -0.9699    0.8122 C   0  0  0  0  0  0  0  0  0  0  0  0
   -1.8817   -0.2312   -0.1525 C   0  0  0  0  0  0  0  0  0  0  0  0
   -0.4022   -0.4681   -0.3315 C   0  0  0  0  0  0  0  0  0  0  0  0
    0.4075    0.4789    0.5593 C   0  0  0  0  0  0  0  0  0  0  0  0
    1.8829    0.2444    0.3773 C   0  0  0  0  0  0  0  0  0  0  0  0
    2.5915    0.9317   -0.6225 C   0  0  0  0  0  0  0  0  0  0  0  0
    3.9555    0.6886   -0.8123 C   0  0  0  0  0  0  0  0  0  0  0  0
    4.6180   -0.2476   -0.0135 C   0  0  0  0  0  0  0  0  0  0  0  0
    3.9167   -0.9453    0.9738 C   0  0  0  0  0  0  0  0  0  0  0  0
    2.5526   -0.7053    1.1669 C   0  0  0  0  0  0  0  0  0  0  0  0
   -4.4524    1.7317   -1.2562 H   0  0  0  0  0  0  0  0  0  0  0  0
   -5.6789    0.3993    0.4249 H   0  0  0  0  0  0  0  0  0  0  0  0
   -2.0817   -1.7191    1.4077 H   0  0  0  0  0  0  0  0  0  0  0  0
   -0.1549   -1.5220   -0.0741 H   0  0  0  0  0  0  0  0  0  0  0  0
   -0.1180   -0.3223   -1.3965 H   0  0  0  0  0  0  0  0  0  0  0  0
    0.1295    0.3196    1.6248 H   0  0  0  0  0  0  0  0  0  0  0  0
    0.1617    1.5344    0.3085 H   0  0  0  0  0  0  0  0  0  0  0  0
    2.0875    1.6526   -1.2544 H   0  0  0  0  0  0  0  0  0  0  0  0
    4.4981    1.2234   -1.5810 H   0  0  0  0  0  0  0  0  0  0  0  0
    5.6735   -0.4355   -0.1625 H   0  0  0  0  0  0  0  0  0  0  0  0
    4.4294   -1.6749    1.5873 H   0  0  0  0  0  0  0  0  0  0  0  0
    2.0185   -1.2594    1.9289 H   0  0  0  0  0  0  0  0  0  0  0  0
  1  2  1  0
  2  3  1  0
  3  4  2  0
  4  5  1  0
  5  6  1  0
  5  7  2  0
  7  8  1  0
  8  9  1  0
  9 10  1  0
 10 11  1  0
 11 12  2  0
 12 13  1  0
 13 14  2  0
 14 15  1  0
 15 16  2  0
  8  2  2  0
 16 11  1  0
  3 17  1  0
  4 18  1  0
  7 19  1  0
  9 20  1  0
  9 21  1  0
 10 22  1  0
 10 23  1  0
 12 24  1  0
 13 25  1  0
 14 26  1  0
 15 27  1  0
 16 28  1  0
M  RAD  1   1   3
M  END
$$$$
