
     RDKit          3D

 28 29  0  0  0  0  0  0  0  0999 V2000
   -1.8895   -2.4766    0.4182 N   0  0  0  0  0  1  0  0  0  0  0  0
   -2.5650   -1.2214    0.3760 C   0  0  0  0  0  0  0  0  0  0  0  0
   -3.9477   -1.1975    0.1576 C   0  0  0  0  0  0  0  0  0  0  0  0
   -4.6302    0.0197    0.0965 C   0  0  0  0  0  0  0  0  0  0  0  0
   -3.9337    1.2206    0.2488 C   0  0  0  0  0  0  0  0  0  0  0  0
   -4.5967    2.4013    0.1802 F   0  0  0  0  0  0  0  0  0  0  0  0
   -2.5531    1.2065    0.4676 C   0  0  0  0  0  0  0  0  0  0  0  0
   -1.8568   -0.0123    0.5463 C   0  0  0  0  0  0  0  0  0  0  0  0
   -0.3617   -0.0017    0.7503 C   0  0  0  0  0  0  0  0  0  0  0  0
    0.3667   -0.0114   -0.5970 C   0  0  0  0  0  0  0  0  0  0  0  0
    1.8577   -0.0047   -0.3924 C   0  0  0  0  0  0  0  0  0  0  0  0
    2.5591   -1.2140   -0.2523 C   0  0  0  0  0  0  0  0  0  0  0  0
    3.9396   -1.2053   -0.0294 C   0  0  0  0  0  0  0  0  0  0  0  0
    4.6265    0.0082    0.0648 C   0  0  0  0  0  0  0  0  0  0  0  0
    3.9333    1.2155   -0.0595 C   0  0  0  0  0  0  0  0  0  0  0  0
    2.5527    1.2114   -0.2824 C   0  0  0  0  0  0  0  0  0  0  0  0
   -4.4942   -2.1237    0.0307 H   0  0  0  0  0  0  0  0  0  0  0  0
   -5.6991    0.0311   -0.0741 H   0  0  0  0  0  0  0  0  0  0  0  0
   -2.0249    2.1461    0.5744 H   0  0  0  0  0  0  0  0  0  0  0  0
   -0.0523   -0.8822    1.3548 H   0  0  0  0  0  0  0  0  0  0  0  0
   -0.0658    0.9035    1.3258 H   0  0  0  0  0  0  0  0  0  0  0  0
    0.0642    0.8784   -1.1924 H   0  0  0  0  0  0  0  0  0  0  0  0
    0.0719   -0.9130   -1.1781 H   0  0  0  0  0  0  0  0  0  0  0  0
    2.0369   -2.1608   -0.3140 H   0  0  0  0  0  0  0  0  0  0  0  0
    4.4764   -2.1395    0.0738 H   0  0  0  0  0  0  0  0  0  0  0  0
    5.6948    0.0132    0.2387 H   0  0  0  0  0  0  0  0  0  0  0  0
    4.4652    2.1547    0.0204 H   0  0  0  0  0  0  0  0  0  0  0  0
    2.0257    2.1537   -0.3676 H   0  0  0  0  0  0  0  0  0  0  0  0
  1  2  1  0
  2  3  1  0
  3  4  2  0
  4  5  1  0
  5  6  1  0
  5  7  2  0
  7  8  1  0
  8  9  1  0
  9 10  1  0
 10 11  1  0
 11 12  2  0
 12 13  1  0
 13 14  2  0
 14 15  1  0
 15 16  2  0
  8  2  2  0
 16 11  1  0
  3 17  1  0
  4 18  1  0
  7 19  1  0
  9 20  1  0
  9 21  1  0
 10 22  1  0
 10 23  1  0
 12 24  1  0
 13 25  1  0
 14 26  1  0
 15 27  1  0
 16 28  1  0
M  RAD  1   1   3
M  END
$$$$
