
     RDKit          3D

 28 29  0  0  0  0  0  0  0  0999 V2000
    2.3106   -2.5858    0.9646 N   0  0  0  0  0  1  0  0  0  0  0  0
    2.2746   -1.1716    0.7858 C   0  0  0  0  0  0  0  0  0  0  0  0
    2.9686   -0.3521    1.6840 C   0  0  0  0  0  0  0  0  0  0  0  0
    2.9394    1.0367    1.5375 C   0  0  0  0  0  0  0  0  0  0  0  0
    2.2154    1.6147    0.4925 C   0  0  0  0  0  0  0  0  0  0  0  0
    2.1810    2.9633    0.3571 F   0  0  0  0  0  0  0  0  0  0  0  0
    1.5216    0.8045   -0.4103 C   0  0  0  0  0  0  0  0  0  0  0  0
    1.5480   -0.5954   -0.2778 C   0  0  0  0  0  0  0  0  0  0  0  0
    0.7500   -1.4495   -1.2362 C   0  0  0  0  0  0  0  0  0  0  0  0
   -0.6130   -1.8457   -0.6507 C   0  0  0  0  0  0  0  0  0  0  0  0
   -1.4935   -0.6439   -0.4201 C   0  0  0  0  0  0  0  0  0  0  0  0
   -1.5707   -0.0533    0.8529 C   0  0  0  0  0  0  0  0  0  0  0  0
   -2.3515    1.0891    1.0528 C   0  0  0  0  0  0  0  0  0  0  0  0
   -3.0561    1.6517   -0.0150 C   0  0  0  0  0  0  0  0  0  0  0  0
   -2.9785    1.0745   -1.2855 C   0  0  0  0  0  0  0  0  0  0  0  0
   -2.1975   -0.0672   -1.4902 C   0  0  0  0  0  0  0  0  0  0  0  0
    3.5285   -0.7918    2.5000 H   0  0  0  0  0  0  0  0  0  0  0  0
    3.4758    1.6646    2.2372 H   0  0  0  0  0  0  0  0  0  0  0  0
    0.9538    1.2681   -1.2078 H   0  0  0  0  0  0  0  0  0  0  0  0
    0.5997   -0.9149   -2.2001 H   0  0  0  0  0  0  0  0  0  0  0  0
    1.3213   -2.3715   -1.4781 H   0  0  0  0  0  0  0  0  0  0  0  0
   -1.1185   -2.5388   -1.3578 H   0  0  0  0  0  0  0  0  0  0  0  0
   -0.4677   -2.4083    0.2974 H   0  0  0  0  0  0  0  0  0  0  0  0
   -1.0190   -0.4709    1.6860 H   0  0  0  0  0  0  0  0  0  0  0  0
   -2.4068    1.5409    2.0348 H   0  0  0  0  0  0  0  0  0  0  0  0
   -3.6589    2.5369    0.1412 H   0  0  0  0  0  0  0  0  0  0  0  0
   -3.5201    1.5144   -2.1128 H   0  0  0  0  0  0  0  0  0  0  0  0
   -2.1364   -0.4987   -2.4816 H   0  0  0  0  0  0  0  0  0  0  0  0
  1  2  1  0
  2  3  1  0
  3  4  2  0
  4  5  1  0
  5  6  1  0
  5  7  2  0
  7  8  1  0
  8  9  1  0
  9 10  1  0
 10 11  1  0
 11 12  2  0
 12 13  1  0
 13 14  2  0
 14 15  1  0
 15 16  2  0
  8  2  2  0
 16 11  1  0
  3 17  1  0
  4 18  1  0
  7 19  1  0
  9 20  1  0
  9 21  1  0
 10 22  1  0
 10 23  1  0
 12 24  1  0
 13 25  1  0
 14 26  1  0
 15 27  1  0
 16 28  1  0
M  RAD  1   1   3
M  END
$$$$
