
     RDKit          3D

 28 29  0  0  0  0  0  0  0  0999 V2000
   -1.6679   -1.3082   -2.2103 N   0  0  0  0  0  1  0  0  0  0  0  0
   -2.4466   -0.5311   -1.3029 C   0  0  0  0  0  0  0  0  0  0  0  0
   -3.8311   -0.7318   -1.2467 C   0  0  0  0  0  0  0  0  0  0  0  0
   -4.6141    0.0057   -0.3555 C   0  0  0  0  0  0  0  0  0  0  0  0
   -4.0171    0.9449    0.4882 C   0  0  0  0  0  0  0  0  0  0  0  0
   -4.7777    1.6532    1.3589 F   0  0  0  0  0  0  0  0  0  0  0  0
   -2.6355    1.1522    0.4389 C   0  0  0  0  0  0  0  0  0  0  0  0
   -1.8383    0.4274   -0.4642 C   0  0  0  0  0  0  0  0  0  0  0  0
   -0.3450    0.6446   -0.4765 C   0  0  0  0  0  0  0  0  0  0  0  0
    0.3509   -0.3385    0.4695 C   0  0  0  0  0  0  0  0  0  0  0  0
    1.8404   -0.1239    0.4534 C   0  0  0  0  0  0  0  0  0  0  0  0
    2.6431   -0.7964   -0.4835 C   0  0  0  0  0  0  0  0  0  0  0  0
    4.0228   -0.5711   -0.5190 C   0  0  0  0  0  0  0  0  0  0  0  0
    4.6082    0.3326    0.3721 C   0  0  0  0  0  0  0  0  0  0  0  0
    3.8143    1.0158    1.2975 C   0  0  0  0  0  0  0  0  0  0  0  0
    2.4342    0.7935    1.3364 C   0  0  0  0  0  0  0  0  0  0  0  0
   -4.3011   -1.4635   -1.8919 H   0  0  0  0  0  0  0  0  0  0  0  0
   -5.6838   -0.1554   -0.3161 H   0  0  0  0  0  0  0  0  0  0  0  0
   -2.1854    1.8773    1.1060 H   0  0  0  0  0  0  0  0  0  0  0  0
    0.0504    0.5220   -1.5085 H   0  0  0  0  0  0  0  0  0  0  0  0
   -0.1127    1.6872   -0.1649 H   0  0  0  0  0  0  0  0  0  0  0  0
    0.1192   -1.3829    0.1646 H   0  0  0  0  0  0  0  0  0  0  0  0
   -0.0380   -0.2025    1.5030 H   0  0  0  0  0  0  0  0  0  0  0  0
    2.2002   -1.4920   -1.1856 H   0  0  0  0  0  0  0  0  0  0  0  0
    4.6376   -1.0945   -1.2397 H   0  0  0  0  0  0  0  0  0  0  0  0
    5.6760    0.5068    0.3424 H   0  0  0  0  0  0  0  0  0  0  0  0
    4.2679    1.7204    1.9826 H   0  0  0  0  0  0  0  0  0  0  0  0
    1.8288    1.3362    2.0519 H   0  0  0  0  0  0  0  0  0  0  0  0
  1  2  1  0
  2  3  1  0
  3  4  2  0
  4  5  1  0
  5  6  1  0
  5  7  2  0
  7  8  1  0
  8  9  1  0
  9 10  1  0
 10 11  1  0
 11 12  2  0
 12 13  1  0
 13 14  2  0
 14 15  1  0
 15 16  2  0
  8  2  2  0
 16 11  1  0
  3 17  1  0
  4 18  1  0
  7 19  1  0
  9 20  1  0
  9 21  1  0
 10 22  1  0
 10 23  1  0
 12 24  1  0
 13 25  1  0
 14 26  1  0
 15 27  1  0
 16 28  1  0
M  RAD  1   1   3
M  END
$$$$
