
     RDKit          3D

 28 29  0  0  0  0  0  0  0  0999 V2000
   -1.9060   -2.2611    1.0362 N   0  0  0  0  0  1  0  0  0  0  0  0
   -2.5764   -1.0865    0.5842 C   0  0  0  0  0  0  0  0  0  0  0  0
   -3.9514   -1.1419    0.3265 C   0  0  0  0  0  0  0  0  0  0  0  0
   -4.6284   -0.0092   -0.1318 C   0  0  0  0  0  0  0  0  0  0  0  0
   -3.9338    1.1844   -0.3398 C   0  0  0  0  0  0  0  0  0  0  0  0
   -4.5911    2.2801   -0.7933 F   0  0  0  0  0  0  0  0  0  0  0  0
   -2.5609    1.2492   -0.0849 C   0  0  0  0  0  0  0  0  0  0  0  0
   -1.8707    0.1206    0.3911 C   0  0  0  0  0  0  0  0  0  0  0  0
   -0.3828    0.2051    0.6278 C   0  0  0  0  0  0  0  0  0  0  0  0
    0.3878   -0.2185   -0.6262 C   0  0  0  0  0  0  0  0  0  0  0  0
    1.8716   -0.1374   -0.3879 C   0  0  0  0  0  0  0  0  0  0  0  0
    2.5661    1.0574   -0.6408 C   0  0  0  0  0  0  0  0  0  0  0  0
    3.9389    1.1408   -0.3876 C   0  0  0  0  0  0  0  0  0  0  0  0
    4.6246    0.0374    0.1280 C   0  0  0  0  0  0  0  0  0  0  0  0
    3.9378   -1.1501    0.3953 C   0  0  0  0  0  0  0  0  0  0  0  0
    2.5650   -1.2378    0.1436 C   0  0  0  0  0  0  0  0  0  0  0  0
   -4.4962   -2.0655    0.4777 H   0  0  0  0  0  0  0  0  0  0  0  0
   -5.6913   -0.0593   -0.3305 H   0  0  0  0  0  0  0  0  0  0  0  0
   -2.0338    2.1791   -0.2599 H   0  0  0  0  0  0  0  0  0  0  0  0
   -0.0951   -0.4410    1.4858 H   0  0  0  0  0  0  0  0  0  0  0  0
   -0.1028    1.2466    0.9015 H   0  0  0  0  0  0  0  0  0  0  0  0
    0.1068    0.4394   -1.4783 H   0  0  0  0  0  0  0  0  0  0  0  0
    0.1092   -1.2583   -0.9064 H   0  0  0  0  0  0  0  0  0  0  0  0
    2.0446    1.9225   -1.0315 H   0  0  0  0  0  0  0  0  0  0  0  0
    4.4706    2.0621   -0.5879 H   0  0  0  0  0  0  0  0  0  0  0  0
    5.6868    0.1041    0.3246 H   0  0  0  0  0  0  0  0  0  0  0  0
    4.4685   -2.0017    0.8009 H   0  0  0  0  0  0  0  0  0  0  0  0
    2.0424   -2.1606    0.3639 H   0  0  0  0  0  0  0  0  0  0  0  0
  1  2  1  0
  2  3  1  0
  3  4  2  0
  4  5  1  0
  5  6  1  0
  5  7  2  0
  7  8  1  0
  8  9  1  0
  9 10  1  0
 10 11  1  0
 11 12  2  0
 12 13  1  0
 13 14  2  0
 14 15  1  0
 15 16  2  0
  8  2  2  0
 16 11  1  0
  3 17  1  0
  4 18  1  0
  7 19  1  0
  9 20  1  0
  9 21  1  0
 10 22  1  0
 10 23  1  0
 12 24  1  0
 13 25  1  0
 14 26  1  0
 15 27  1  0
 16 28  1  0
M  RAD  1   1   3
M  END
$$$$
