
     RDKit          3D

 28 29  0  0  0  0  0  0  0  0999 V2000
    1.9511    2.4308   -0.2493 N   0  0  0  0  0  1  0  0  0  0  0  0
    2.6001    1.1686   -0.1098 C   0  0  0  0  0  0  0  0  0  0  0  0
    3.9653    1.1336    0.1988 C   0  0  0  0  0  0  0  0  0  0  0  0
    4.6208   -0.0899    0.3559 C   0  0  0  0  0  0  0  0  0  0  0  0
    3.9142   -1.2857    0.2100 C   0  0  0  0  0  0  0  0  0  0  0  0
    4.5503   -2.4721    0.3718 F   0  0  0  0  0  0  0  0  0  0  0  0
    2.5510   -1.2605   -0.0983 C   0  0  0  0  0  0  0  0  0  0  0  0
    1.8830   -0.0360   -0.2740 C   0  0  0  0  0  0  0  0  0  0  0  0
    0.4041   -0.0331   -0.5741 C   0  0  0  0  0  0  0  0  0  0  0  0
   -0.4090    0.0464    0.7215 C   0  0  0  0  0  0  0  0  0  0  0  0
   -1.8837    0.0531    0.4210 C   0  0  0  0  0  0  0  0  0  0  0  0
   -2.5531    1.2655    0.1841 C   0  0  0  0  0  0  0  0  0  0  0  0
   -3.9163    1.2678   -0.1274 C   0  0  0  0  0  0  0  0  0  0  0  0
   -4.6172    0.0616   -0.2142 C   0  0  0  0  0  0  0  0  0  0  0  0
   -3.9550   -1.1493    0.0063 C   0  0  0  0  0  0  0  0  0  0  0  0
   -2.5918   -1.1561    0.3181 C   0  0  0  0  0  0  0  0  0  0  0  0
    4.5189    2.0562    0.3212 H   0  0  0  0  0  0  0  0  0  0  0  0
    5.6761   -0.1098    0.5959 H   0  0  0  0  0  0  0  0  0  0  0  0
    2.0142   -2.1959   -0.1991 H   0  0  0  0  0  0  0  0  0  0  0  0
    0.1297   -0.9580   -1.1284 H   0  0  0  0  0  0  0  0  0  0  0  0
    0.1499    0.8246   -1.2344 H   0  0  0  0  0  0  0  0  0  0  0  0
   -0.1613   -0.8209    1.3727 H   0  0  0  0  0  0  0  0  0  0  0  0
   -0.1362    0.9680    1.2815 H   0  0  0  0  0  0  0  0  0  0  0  0
   -2.0192    2.2062    0.2391 H   0  0  0  0  0  0  0  0  0  0  0  0
   -4.4287    2.2045   -0.3050 H   0  0  0  0  0  0  0  0  0  0  0  0
   -5.6720    0.0651   -0.4567 H   0  0  0  0  0  0  0  0  0  0  0  0
   -4.4972   -2.0830   -0.0678 H   0  0  0  0  0  0  0  0  0  0  0  0
   -2.0881   -2.1016    0.4774 H   0  0  0  0  0  0  0  0  0  0  0  0
  1  2  1  0
  2  3  1  0
  3  4  2  0
  4  5  1  0
  5  6  1  0
  5  7  2  0
  7  8  1  0
  8  9  1  0
  9 10  1  0
 10 11  1  0
 11 12  2  0
 12 13  1  0
 13 14  2  0
 14 15  1  0
 15 16  2  0
  8  2  2  0
 16 11  1  0
  3 17  1  0
  4 18  1  0
  7 19  1  0
  9 20  1  0
  9 21  1  0
 10 22  1  0
 10 23  1  0
 12 24  1  0
 13 25  1  0
 14 26  1  0
 15 27  1  0
 16 28  1  0
M  RAD  1   1   3
M  END
$$$$
