
     RDKit          3D

 28 29  0  0  0  0  0  0  0  0999 V2000
   -1.9741   -2.4327    0.1794 N   0  0  0  0  0  1  0  0  0  0  0  0
   -2.6084   -1.1624    0.0471 C   0  0  0  0  0  0  0  0  0  0  0  0
   -3.9844   -1.0586    0.2837 C   0  0  0  0  0  0  0  0  0  0  0  0
   -4.6265    0.1772    0.1757 C   0  0  0  0  0  0  0  0  0  0  0  0
   -3.8959    1.3177   -0.1649 C   0  0  0  0  0  0  0  0  0  0  0  0
   -4.5194    2.5178   -0.2603 F   0  0  0  0  0  0  0  0  0  0  0  0
   -2.5217    1.2236   -0.4032 C   0  0  0  0  0  0  0  0  0  0  0  0
   -1.8663   -0.0169   -0.3127 C   0  0  0  0  0  0  0  0  0  0  0  0
   -0.3766   -0.0883   -0.5422 C   0  0  0  0  0  0  0  0  0  0  0  0
    0.3812    0.0755    0.7788 C   0  0  0  0  0  0  0  0  0  0  0  0
    1.8666    0.0004    0.5495 C   0  0  0  0  0  0  0  0  0  0  0  0
    2.5973    1.1621    0.2485 C   0  0  0  0  0  0  0  0  0  0  0  0
    3.9719    1.0855    0.0033 C   0  0  0  0  0  0  0  0  0  0  0  0
    4.6236   -0.1502    0.0470 C   0  0  0  0  0  0  0  0  0  0  0  0
    3.9009   -1.3121    0.3319 C   0  0  0  0  0  0  0  0  0  0  0  0
    2.5261   -1.2399    0.5777 C   0  0  0  0  0  0  0  0  0  0  0  0
   -4.5571   -1.9365    0.5558 H   0  0  0  0  0  0  0  0  0  0  0  0
   -5.6904    0.2506    0.3614 H   0  0  0  0  0  0  0  0  0  0  0  0
   -1.9665    2.1184   -0.6572 H   0  0  0  0  0  0  0  0  0  0  0  0
   -0.1088   -1.0584   -1.0149 H   0  0  0  0  0  0  0  0  0  0  0  0
   -0.0650    0.7114   -1.2504 H   0  0  0  0  0  0  0  0  0  0  0  0
    0.1205    1.0533    1.2411 H   0  0  0  0  0  0  0  0  0  0  0  0
    0.0711   -0.7198    1.4921 H   0  0  0  0  0  0  0  0  0  0  0  0
    2.1024    2.1244    0.2024 H   0  0  0  0  0  0  0  0  0  0  0  0
    4.5313    1.9837   -0.2241 H   0  0  0  0  0  0  0  0  0  0  0  0
    5.6873   -0.2079   -0.1443 H   0  0  0  0  0  0  0  0  0  0  0  0
    4.4054   -2.2693    0.3588 H   0  0  0  0  0  0  0  0  0  0  0  0
    1.9757   -2.1487    0.7880 H   0  0  0  0  0  0  0  0  0  0  0  0
  1  2  1  0
  2  3  1  0
  3  4  2  0
  4  5  1  0
  5  6  1  0
  5  7  2  0
  7  8  1  0
  8  9  1  0
  9 10  1  0
 10 11  1  0
 11 12  2  0
 12 13  1  0
 13 14  2  0
 14 15  1  0
 15 16  2  0
  8  2  2  0
 16 11  1  0
  3 17  1  0
  4 18  1  0
  7 19  1  0
  9 20  1  0
  9 21  1  0
 10 22  1  0
 10 23  1  0
 12 24  1  0
 13 25  1  0
 14 26  1  0
 15 27  1  0
 16 28  1  0
M  RAD  1   1   3
M  END
$$$$
