
     RDKit          3D

 28 29  0  0  0  0  0  0  0  0999 V2000
   -2.3445   -1.9702   -1.9586 N   0  0  0  0  0  1  0  0  0  0  0  0
   -2.3312   -1.0251   -0.8909 C   0  0  0  0  0  0  0  0  0  0  0  0
   -3.3478   -0.0655   -0.8161 C   0  0  0  0  0  0  0  0  0  0  0  0
   -3.3508    0.8786    0.2134 C   0  0  0  0  0  0  0  0  0  0  0  0
   -2.3370    0.8695    1.1738 C   0  0  0  0  0  0  0  0  0  0  0  0
   -2.3368    1.7922    2.1672 F   0  0  0  0  0  0  0  0  0  0  0  0
   -1.3195   -0.0862    1.1084 C   0  0  0  0  0  0  0  0  0  0  0  0
   -1.3082   -1.0462    0.0808 C   0  0  0  0  0  0  0  0  0  0  0  0
   -0.1711   -2.0391    0.0014 C   0  0  0  0  0  0  0  0  0  0  0  0
    0.9136   -1.5887   -0.9875 C   0  0  0  0  0  0  0  0  0  0  0  0
    1.5805   -0.3117   -0.5432 C   0  0  0  0  0  0  0  0  0  0  0  0
    1.1625    0.9259   -1.0616 C   0  0  0  0  0  0  0  0  0  0  0  0
    1.7509    2.1121   -0.6129 C   0  0  0  0  0  0  0  0  0  0  0  0
    2.7557    2.0722    0.3577 C   0  0  0  0  0  0  0  0  0  0  0  0
    3.1716    0.8459    0.8835 C   0  0  0  0  0  0  0  0  0  0  0  0
    2.5848   -0.3428    0.4386 C   0  0  0  0  0  0  0  0  0  0  0  0
   -4.1351   -0.0482   -1.5593 H   0  0  0  0  0  0  0  0  0  0  0  0
   -4.1382    1.6197    0.2637 H   0  0  0  0  0  0  0  0  0  0  0  0
   -0.5329   -0.0722    1.8530 H   0  0  0  0  0  0  0  0  0  0  0  0
    0.2815   -2.1923    1.0060 H   0  0  0  0  0  0  0  0  0  0  0  0
   -0.5624   -3.0292   -0.3173 H   0  0  0  0  0  0  0  0  0  0  0  0
    0.4729   -1.4645   -2.0009 H   0  0  0  0  0  0  0  0  0  0  0  0
    1.6787   -2.3912   -1.0694 H   0  0  0  0  0  0  0  0  0  0  0  0
    0.3754    0.9722   -1.8041 H   0  0  0  0  0  0  0  0  0  0  0  0
    1.4247    3.0628   -1.0144 H   0  0  0  0  0  0  0  0  0  0  0  0
    3.2091    2.9915    0.7050 H   0  0  0  0  0  0  0  0  0  0  0  0
    3.9459    0.8166    1.6392 H   0  0  0  0  0  0  0  0  0  0  0  0
    2.9077   -1.2860    0.8618 H   0  0  0  0  0  0  0  0  0  0  0  0
  1  2  1  0
  2  3  1  0
  3  4  2  0
  4  5  1  0
  5  6  1  0
  5  7  2  0
  7  8  1  0
  8  9  1  0
  9 10  1  0
 10 11  1  0
 11 12  2  0
 12 13  1  0
 13 14  2  0
 14 15  1  0
 15 16  2  0
  8  2  2  0
 16 11  1  0
  3 17  1  0
  4 18  1  0
  7 19  1  0
  9 20  1  0
  9 21  1  0
 10 22  1  0
 10 23  1  0
 12 24  1  0
 13 25  1  0
 14 26  1  0
 15 27  1  0
 16 28  1  0
M  RAD  1   1   3
M  END
$$$$
