
     RDKit          3D

 28 29  0  0  0  0  0  0  0  0999 V2000
   -2.5541   -2.1302    1.3765 N   0  0  0  0  0  1  0  0  0  0  0  0
   -2.4329   -0.9268    0.6212 C   0  0  0  0  0  0  0  0  0  0  0  0
   -3.3151    0.1301    0.8750 C   0  0  0  0  0  0  0  0  0  0  0  0
   -3.2097    1.3236    0.1568 C   0  0  0  0  0  0  0  0  0  0  0  0
   -2.2210    1.4678   -0.8188 C   0  0  0  0  0  0  0  0  0  0  0  0
   -2.1147    2.6301   -1.5087 F   0  0  0  0  0  0  0  0  0  0  0  0
   -1.3375    0.4172   -1.0806 C   0  0  0  0  0  0  0  0  0  0  0  0
   -1.4369   -0.7919   -0.3692 C   0  0  0  0  0  0  0  0  0  0  0  0
   -0.4395   -1.8963   -0.6344 C   0  0  0  0  0  0  0  0  0  0  0  0
    0.7104   -1.8853    0.3829 C   0  0  0  0  0  0  0  0  0  0  0  0
    1.5328   -0.6256    0.2841 C   0  0  0  0  0  0  0  0  0  0  0  0
    1.2897    0.4517    1.1532 C   0  0  0  0  0  0  0  0  0  0  0  0
    2.0223    1.6360    1.0286 C   0  0  0  0  0  0  0  0  0  0  0  0
    2.9979    1.7550    0.0350 C   0  0  0  0  0  0  0  0  0  0  0  0
    3.2403    0.6907   -0.8379 C   0  0  0  0  0  0  0  0  0  0  0  0
    2.5088   -0.4950   -0.7178 C   0  0  0  0  0  0  0  0  0  0  0  0
   -4.0816    0.0286    1.6331 H   0  0  0  0  0  0  0  0  0  0  0  0
   -3.8932    2.1379    0.3601 H   0  0  0  0  0  0  0  0  0  0  0  0
   -0.5676    0.5490   -1.8311 H   0  0  0  0  0  0  0  0  0  0  0  0
   -0.0267   -1.8079   -1.6637 H   0  0  0  0  0  0  0  0  0  0  0  0
   -0.9528   -2.8809   -0.5891 H   0  0  0  0  0  0  0  0  0  0  0  0
    0.3058   -2.0052    1.4117 H   0  0  0  0  0  0  0  0  0  0  0  0
    1.3642   -2.7643    0.1936 H   0  0  0  0  0  0  0  0  0  0  0  0
    0.5272    0.3779    1.9188 H   0  0  0  0  0  0  0  0  0  0  0  0
    1.8306    2.4633    1.6996 H   0  0  0  0  0  0  0  0  0  0  0  0
    3.5631    2.6730   -0.0611 H   0  0  0  0  0  0  0  0  0  0  0  0
    3.9921    0.7861   -1.6106 H   0  0  0  0  0  0  0  0  0  0  0  0
    2.6980   -1.3085   -1.4072 H   0  0  0  0  0  0  0  0  0  0  0  0
  1  2  1  0
  2  3  1  0
  3  4  2  0
  4  5  1  0
  5  6  1  0
  5  7  2  0
  7  8  1  0
  8  9  1  0
  9 10  1  0
 10 11  1  0
 11 12  2  0
 12 13  1  0
 13 14  2  0
 14 15  1  0
 15 16  2  0
  8  2  2  0
 16 11  1  0
  3 17  1  0
  4 18  1  0
  7 19  1  0
  9 20  1  0
  9 21  1  0
 10 22  1  0
 10 23  1  0
 12 24  1  0
 13 25  1  0
 14 26  1  0
 15 27  1  0
 16 28  1  0
M  RAD  1   1   3
M  END
$$$$
