
     RDKit          3D

 28 29  0  0  0  0  0  0  0  0999 V2000
   -2.7468   -1.9739   -1.2306 N   0  0  0  0  0  1  0  0  0  0  0  0
   -2.5137   -0.7804   -0.4859 C   0  0  0  0  0  0  0  0  0  0  0  0
   -3.3442    0.3272   -0.6939 C   0  0  0  0  0  0  0  0  0  0  0  0
   -3.1294    1.5117    0.0146 C   0  0  0  0  0  0  0  0  0  0  0  0
   -2.0824    1.5963    0.9348 C   0  0  0  0  0  0  0  0  0  0  0  0
   -1.8700    2.7496    1.6150 F   0  0  0  0  0  0  0  0  0  0  0  0
   -1.2497    0.4949    1.1507 C   0  0  0  0  0  0  0  0  0  0  0  0
   -1.4590   -0.7056    0.4487 C   0  0  0  0  0  0  0  0  0  0  0  0
   -0.5159   -1.8675    0.6620 C   0  0  0  0  0  0  0  0  0  0  0  0
    0.5756   -1.9238   -0.4164 C   0  0  0  0  0  0  0  0  0  0  0  0
    1.4754   -0.7152   -0.3654 C   0  0  0  0  0  0  0  0  0  0  0  0
    2.5104   -0.6434    0.5817 C   0  0  0  0  0  0  0  0  0  0  0  0
    3.3163    0.4967    0.6589 C   0  0  0  0  0  0  0  0  0  0  0  0
    3.0902    1.5741   -0.2021 C   0  0  0  0  0  0  0  0  0  0  0  0
    2.0568    1.5141   -1.1409 C   0  0  0  0  0  0  0  0  0  0  0  0
    1.2496    0.3754   -1.2227 C   0  0  0  0  0  0  0  0  0  0  0  0
   -4.1555    0.2719   -1.4091 H   0  0  0  0  0  0  0  0  0  0  0  0
   -3.7735    2.3653   -0.1532 H   0  0  0  0  0  0  0  0  0  0  0  0
   -0.4337    0.5801    1.8580 H   0  0  0  0  0  0  0  0  0  0  0  0
   -1.0884   -2.8198    0.6470 H   0  0  0  0  0  0  0  0  0  0  0  0
   -0.0433   -1.8045    1.6670 H   0  0  0  0  0  0  0  0  0  0  0  0
    1.1855   -2.8402   -0.2608 H   0  0  0  0  0  0  0  0  0  0  0  0
    0.1092   -2.0187   -1.4214 H   0  0  0  0  0  0  0  0  0  0  0  0
    2.6882   -1.4673    1.2618 H   0  0  0  0  0  0  0  0  0  0  0  0
    4.1133    0.5467    1.3895 H   0  0  0  0  0  0  0  0  0  0  0  0
    3.7132    2.4569   -0.1391 H   0  0  0  0  0  0  0  0  0  0  0  0
    1.8782    2.3518   -1.8026 H   0  0  0  0  0  0  0  0  0  0  0  0
    0.4436    0.3475   -1.9456 H   0  0  0  0  0  0  0  0  0  0  0  0
  1  2  1  0
  2  3  1  0
  3  4  2  0
  4  5  1  0
  5  6  1  0
  5  7  2  0
  7  8  1  0
  8  9  1  0
  9 10  1  0
 10 11  1  0
 11 12  2  0
 12 13  1  0
 13 14  2  0
 14 15  1  0
 15 16  2  0
  8  2  2  0
 16 11  1  0
  3 17  1  0
  4 18  1  0
  7 19  1  0
  9 20  1  0
  9 21  1  0
 10 22  1  0
 10 23  1  0
 12 24  1  0
 13 25  1  0
 14 26  1  0
 15 27  1  0
 16 28  1  0
M  RAD  1   1   3
M  END
$$$$
