
     RDKit          3D

 28 29  0  0  0  0  0  0  0  0999 V2000
    2.2651   -2.0040    1.9513 N   0  0  0  0  0  1  0  0  0  0  0  0
    2.2589   -0.7900    1.2033 C   0  0  0  0  0  0  0  0  0  0  0  0
    2.9764    0.3118    1.6843 C   0  0  0  0  0  0  0  0  0  0  0  0
    2.9770    1.5156    0.9757 C   0  0  0  0  0  0  0  0  0  0  0  0
    2.2597    1.6251   -0.2170 C   0  0  0  0  0  0  0  0  0  0  0  0
    1.5423    0.5305   -0.7060 C   0  0  0  0  0  0  0  0  0  0  0  0
    1.5386   -0.6893   -0.0061 C   0  0  0  0  0  0  0  0  0  0  0  0
    0.7166   -1.8455   -0.5283 C   0  0  0  0  0  0  0  0  0  0  0  0
   -0.6502   -1.9353    0.1652 C   0  0  0  0  0  0  0  0  0  0  0  0
   -1.5044   -0.7270   -0.1231 C   0  0  0  0  0  0  0  0  0  0  0  0
   -2.2035   -0.6286   -1.3375 C   0  0  0  0  0  0  0  0  0  0  0  0
   -2.9599    0.5120   -1.6243 C   0  0  0  0  0  0  0  0  0  0  0  0
   -3.0177    1.5640   -0.7055 C   0  0  0  0  0  0  0  0  0  0  0  0
   -3.7489    2.6705   -0.9870 F   0  0  0  0  0  0  0  0  0  0  0  0
   -2.3174    1.4772    0.5012 C   0  0  0  0  0  0  0  0  0  0  0  0
   -1.5613    0.3378    0.7923 C   0  0  0  0  0  0  0  0  0  0  0  0
    3.5315    0.2368    2.6110 H   0  0  0  0  0  0  0  0  0  0  0  0
    3.5311    2.3652    1.3533 H   0  0  0  0  0  0  0  0  0  0  0  0
    2.2560    2.5605   -0.7615 H   0  0  0  0  0  0  0  0  0  0  0  0
    0.9807    0.6367   -1.6261 H   0  0  0  0  0  0  0  0  0  0  0  0
    1.2673   -2.7971   -0.3666 H   0  0  0  0  0  0  0  0  0  0  0  0
    0.5710   -1.7533   -1.6273 H   0  0  0  0  0  0  0  0  0  0  0  0
   -0.5103   -2.0594    1.2614 H   0  0  0  0  0  0  0  0  0  0  0  0
   -1.1745   -2.8475   -0.1939 H   0  0  0  0  0  0  0  0  0  0  0  0
   -2.1577   -1.4321   -2.0622 H   0  0  0  0  0  0  0  0  0  0  0  0
   -3.4974    0.5811   -2.5613 H   0  0  0  0  0  0  0  0  0  0  0  0
   -2.3562    2.2943    1.2100 H   0  0  0  0  0  0  0  0  0  0  0  0
   -1.0127    0.2895    1.7249 H   0  0  0  0  0  0  0  0  0  0  0  0
  1  2  1  0
  2  3  2  0
  3  4  1  0
  4  5  2  0
  5  6  1  0
  6  7  2  0
  7  8  1  0
  8  9  1  0
  9 10  1  0
 10 11  1  0
 11 12  2  0
 12 13  1  0
 13 14  1  0
 13 15  2  0
 15 16  1  0
  7  2  1  0
 16 10  2  0
  3 17  1  0
  4 18  1  0
  5 19  1  0
  6 20  1  0
  8 21  1  0
  8 22  1  0
  9 23  1  0
  9 24  1  0
 11 25  1  0
 12 26  1  0
 15 27  1  0
 16 28  1  0
M  RAD  1   1   3
M  END
$$$$
