
     RDKit          3D

 28 29  0  0  0  0  0  0  0  0999 V2000
    1.6441   -1.7887    2.0777 N   0  0  0  0  0  1  0  0  0  0  0  0
    2.4283   -0.8297    1.3712 C   0  0  0  0  0  0  0  0  0  0  0  0
    3.8214   -0.9684    1.3516 C   0  0  0  0  0  0  0  0  0  0  0  0
    4.6107   -0.0510    0.6539 C   0  0  0  0  0  0  0  0  0  0  0  0
    4.0115    1.0073   -0.0320 C   0  0  0  0  0  0  0  0  0  0  0  0
    2.6218    1.1541   -0.0181 C   0  0  0  0  0  0  0  0  0  0  0  0
    1.8170    0.2466    0.6927 C   0  0  0  0  0  0  0  0  0  0  0  0
    0.3167    0.4060    0.6665 C   0  0  0  0  0  0  0  0  0  0  0  0
   -0.2923   -0.4076   -0.4794 C   0  0  0  0  0  0  0  0  0  0  0  0
   -1.7890   -0.2512   -0.5022 C   0  0  0  0  0  0  0  0  0  0  0  0
   -2.6030   -1.1133    0.2513 C   0  0  0  0  0  0  0  0  0  0  0  0
   -3.9914   -0.9463    0.2554 C   0  0  0  0  0  0  0  0  0  0  0  0
   -4.5753    0.0868   -0.4837 C   0  0  0  0  0  0  0  0  0  0  0  0
   -5.9214    0.2481   -0.4773 F   0  0  0  0  0  0  0  0  0  0  0  0
   -3.7704    0.9571   -1.2247 C   0  0  0  0  0  0  0  0  0  0  0  0
   -2.3816    0.7934   -1.2312 C   0  0  0  0  0  0  0  0  0  0  0  0
    4.2936   -1.7907    1.8746 H   0  0  0  0  0  0  0  0  0  0  0  0
    5.6871   -0.1635    0.6407 H   0  0  0  0  0  0  0  0  0  0  0  0
    4.6242    1.7130   -0.5780 H   0  0  0  0  0  0  0  0  0  0  0  0
    2.1724    1.9751   -0.5631 H   0  0  0  0  0  0  0  0  0  0  0  0
    0.0534    1.4797    0.5402 H   0  0  0  0  0  0  0  0  0  0  0  0
   -0.1191    0.0802    1.6361 H   0  0  0  0  0  0  0  0  0  0  0  0
    0.1366   -0.0687   -1.4483 H   0  0  0  0  0  0  0  0  0  0  0  0
   -0.0293   -1.4819   -0.3600 H   0  0  0  0  0  0  0  0  0  0  0  0
   -2.1624   -1.9117    0.8356 H   0  0  0  0  0  0  0  0  0  0  0  0
   -4.6136   -1.6164    0.8347 H   0  0  0  0  0  0  0  0  0  0  0  0
   -4.2213    1.7613   -1.7917 H   0  0  0  0  0  0  0  0  0  0  0  0
   -1.7686    1.4802   -1.8018 H   0  0  0  0  0  0  0  0  0  0  0  0
  1  2  1  0
  2  3  2  0
  3  4  1  0
  4  5  2  0
  5  6  1  0
  6  7  2  0
  7  8  1  0
  8  9  1  0
  9 10  1  0
 10 11  1  0
 11 12  2  0
 12 13  1  0
 13 14  1  0
 13 15  2  0
 15 16  1  0
  7  2  1  0
 16 10  2  0
  3 17  1  0
  4 18  1  0
  5 19  1  0
  6 20  1  0
  8 21  1  0
  8 22  1  0
  9 23  1  0
  9 24  1  0
 11 25  1  0
 12 26  1  0
 15 27  1  0
 16 28  1  0
M  RAD  1   1   3
M  END
$$$$
