
     RDKit          3D

 28 29  0  0  0  0  0  0  0  0999 V2000
    2.5132   -1.5242    1.9910 N   0  0  0  0  0  1  0  0  0  0  0  0
    2.4160   -0.6352    0.8803 C   0  0  0  0  0  0  0  0  0  0  0  0
    3.2844    0.4604    0.8048 C   0  0  0  0  0  0  0  0  0  0  0  0
    3.2017    1.3520   -0.2674 C   0  0  0  0  0  0  0  0  0  0  0  0
    2.2501    1.1539   -1.2695 C   0  0  0  0  0  0  0  0  0  0  0  0
    1.3805    0.0624   -1.2039 C   0  0  0  0  0  0  0  0  0  0  0  0
    1.4572   -0.8466   -0.1334 C   0  0  0  0  0  0  0  0  0  0  0  0
    0.4749   -1.9930   -0.0576 C   0  0  0  0  0  0  0  0  0  0  0  0
   -0.7114   -1.6703    0.8620 C   0  0  0  0  0  0  0  0  0  0  0  0
   -1.5353   -0.5247    0.3315 C   0  0  0  0  0  0  0  0  0  0  0  0
   -1.3292    0.7804    0.8103 C   0  0  0  0  0  0  0  0  0  0  0  0
   -2.0622    1.8479    0.2833 C   0  0  0  0  0  0  0  0  0  0  0  0
   -3.0016    1.6219   -0.7269 C   0  0  0  0  0  0  0  0  0  0  0  0
   -3.7101    2.6586   -1.2381 F   0  0  0  0  0  0  0  0  0  0  0  0
   -3.2068    0.3275   -1.2135 C   0  0  0  0  0  0  0  0  0  0  0  0
   -2.4746   -0.7426   -0.6900 C   0  0  0  0  0  0  0  0  0  0  0  0
    4.0222    0.6240    1.5803 H   0  0  0  0  0  0  0  0  0  0  0  0
    3.8736    2.1989   -0.3196 H   0  0  0  0  0  0  0  0  0  0  0  0
    2.1831    1.8493   -2.0962 H   0  0  0  0  0  0  0  0  0  0  0  0
    0.6396   -0.0689   -1.9829 H   0  0  0  0  0  0  0  0  0  0  0  0
    0.9906   -2.9010    0.3226 H   0  0  0  0  0  0  0  0  0  0  0  0
    0.0996   -2.2506   -1.0727 H   0  0  0  0  0  0  0  0  0  0  0  0
   -1.3539   -2.5736    0.9477 H   0  0  0  0  0  0  0  0  0  0  0  0
   -0.3442   -1.4428    1.8867 H   0  0  0  0  0  0  0  0  0  0  0  0
   -0.5948    0.9717    1.5831 H   0  0  0  0  0  0  0  0  0  0  0  0
   -1.8979    2.8508    0.6557 H   0  0  0  0  0  0  0  0  0  0  0  0
   -3.9301    0.1527   -1.9996 H   0  0  0  0  0  0  0  0  0  0  0  0
   -2.6346   -1.7390   -1.0830 H   0  0  0  0  0  0  0  0  0  0  0  0
  1  2  1  0
  2  3  2  0
  3  4  1  0
  4  5  2  0
  5  6  1  0
  6  7  2  0
  7  8  1  0
  8  9  1  0
  9 10  1  0
 10 11  1  0
 11 12  2  0
 12 13  1  0
 13 14  1  0
 13 15  2  0
 15 16  1  0
  7  2  1  0
 16 10  2  0
  3 17  1  0
  4 18  1  0
  5 19  1  0
  6 20  1  0
  8 21  1  0
  8 22  1  0
  9 23  1  0
  9 24  1  0
 11 25  1  0
 12 26  1  0
 15 27  1  0
 16 28  1  0
M  RAD  1   1   3
M  END
$$$$
