
     RDKit          3D

 28 29  0  0  0  0  0  0  0  0999 V2000
   -2.2072    1.9505    0.9838 N   0  0  0  0  0  1  0  0  0  0  0  0
   -2.7076    0.9063    0.1516 C   0  0  0  0  0  0  0  0  0  0  0  0
   -4.0813    0.6353    0.1481 C   0  0  0  0  0  0  0  0  0  0  0  0
   -4.5944   -0.3925   -0.6467 C   0  0  0  0  0  0  0  0  0  0  0  0
   -3.7367   -1.1581   -1.4389 C   0  0  0  0  0  0  0  0  0  0  0  0
   -2.3642   -0.8951   -1.4423 C   0  0  0  0  0  0  0  0  0  0  0  0
   -1.8367    0.1462   -0.6586 C   0  0  0  0  0  0  0  0  0  0  0  0
   -0.3477    0.3906   -0.6531 C   0  0  0  0  0  0  0  0  0  0  0  0
    0.3246   -0.4000    0.4733 C   0  0  0  0  0  0  0  0  0  0  0  0
    1.8091   -0.1525    0.4804 C   0  0  0  0  0  0  0  0  0  0  0  0
    2.3448    0.9215    1.2107 C   0  0  0  0  0  0  0  0  0  0  0  0
    3.7207    1.1704    1.1901 C   0  0  0  0  0  0  0  0  0  0  0  0
    4.5690    0.3564    0.4336 C   0  0  0  0  0  0  0  0  0  0  0  0
    5.9025    0.6002    0.4135 F   0  0  0  0  0  0  0  0  0  0  0  0
    4.0412   -0.7056   -0.3068 C   0  0  0  0  0  0  0  0  0  0  0  0
    2.6658   -0.9577   -0.2887 C   0  0  0  0  0  0  0  0  0  0  0  0
   -4.7525    1.2194    0.7654 H   0  0  0  0  0  0  0  0  0  0  0  0
   -5.6569   -0.5988   -0.6447 H   0  0  0  0  0  0  0  0  0  0  0  0
   -4.1351   -1.9588   -2.0486 H   0  0  0  0  0  0  0  0  0  0  0  0
   -1.7115   -1.5046   -2.0552 H   0  0  0  0  0  0  0  0  0  0  0  0
    0.0882    0.0873   -1.6309 H   0  0  0  0  0  0  0  0  0  0  0  0
   -0.1392    1.4760   -0.5311 H   0  0  0  0  0  0  0  0  0  0  0  0
   -0.1098   -0.1030    1.4534 H   0  0  0  0  0  0  0  0  0  0  0  0
    0.1246   -1.4862    0.3393 H   0  0  0  0  0  0  0  0  0  0  0  0
    1.6973    1.5654    1.7932 H   0  0  0  0  0  0  0  0  0  0  0  0
    4.1279    1.9969    1.7581 H   0  0  0  0  0  0  0  0  0  0  0  0
    4.6966   -1.3321   -0.8980 H   0  0  0  0  0  0  0  0  0  0  0  0
    2.2685   -1.7777   -0.8741 H   0  0  0  0  0  0  0  0  0  0  0  0
  1  2  1  0
  2  3  2  0
  3  4  1  0
  4  5  2  0
  5  6  1  0
  6  7  2  0
  7  8  1  0
  8  9  1  0
  9 10  1  0
 10 11  1  0
 11 12  2  0
 12 13  1  0
 13 14  1  0
 13 15  2  0
 15 16  1  0
  7  2  1  0
 16 10  2  0
  3 17  1  0
  4 18  1  0
  5 19  1  0
  6 20  1  0
  8 21  1  0
  8 22  1  0
  9 23  1  0
  9 24  1  0
 11 25  1  0
 12 26  1  0
 15 27  1  0
 16 28  1  0
M  RAD  1   1   3
M  END
$$$$
