
     RDKit          3D

 28 29  0  0  0  0  0  0  0  0999 V2000
    1.8640   -2.5062    0.1803 N   0  0  0  0  0  1  0  0  0  0  0  0
    2.5641   -1.2747    0.0164 C   0  0  0  0  0  0  0  0  0  0  0  0
    3.9199   -1.3015   -0.3321 C   0  0  0  0  0  0  0  0  0  0  0  0
    4.6241   -0.1088   -0.5135 C   0  0  0  0  0  0  0  0  0  0  0  0
    3.9758    1.1172   -0.3522 C   0  0  0  0  0  0  0  0  0  0  0  0
    2.6229    1.1542   -0.0042 C   0  0  0  0  0  0  0  0  0  0  0  0
    1.9063   -0.0387    0.1962 C   0  0  0  0  0  0  0  0  0  0  0  0
    0.4383    0.0254    0.5394 C   0  0  0  0  0  0  0  0  0  0  0  0
   -0.4154   -0.0225   -0.7314 C   0  0  0  0  0  0  0  0  0  0  0  0
   -1.8794    0.0375   -0.3879 C   0  0  0  0  0  0  0  0  0  0  0  0
   -2.5945   -1.1431   -0.1257 C   0  0  0  0  0  0  0  0  0  0  0  0
   -3.9468   -1.0839    0.2256 C   0  0  0  0  0  0  0  0  0  0  0  0
   -4.5911    0.1526    0.3272 C   0  0  0  0  0  0  0  0  0  0  0  0
   -5.9018    0.2081    0.6695 F   0  0  0  0  0  0  0  0  0  0  0  0
   -3.8822    1.3322    0.0814 C   0  0  0  0  0  0  0  0  0  0  0  0
   -2.5298    1.2772   -0.2701 C   0  0  0  0  0  0  0  0  0  0  0  0
    4.4283   -2.2481   -0.4666 H   0  0  0  0  0  0  0  0  0  0  0  0
    5.6717   -0.1350   -0.7843 H   0  0  0  0  0  0  0  0  0  0  0  0
    4.5212    2.0403   -0.5002 H   0  0  0  0  0  0  0  0  0  0  0  0
    2.1327    2.1135    0.1078 H   0  0  0  0  0  0  0  0  0  0  0  0
    0.1658   -0.8178    1.2110 H   0  0  0  0  0  0  0  0  0  0  0  0
    0.2216    0.9636    1.0969 H   0  0  0  0  0  0  0  0  0  0  0  0
   -0.1488    0.8307   -1.3938 H   0  0  0  0  0  0  0  0  0  0  0  0
   -0.2003   -0.9572   -1.2948 H   0  0  0  0  0  0  0  0  0  0  0  0
   -2.1046   -2.1067   -0.1917 H   0  0  0  0  0  0  0  0  0  0  0  0
   -4.4934   -1.9972    0.4224 H   0  0  0  0  0  0  0  0  0  0  0  0
   -4.3788    2.2902    0.1665 H   0  0  0  0  0  0  0  0  0  0  0  0
   -1.9896    2.1987   -0.4487 H   0  0  0  0  0  0  0  0  0  0  0  0
  1  2  1  0
  2  3  2  0
  3  4  1  0
  4  5  2  0
  5  6  1  0
  6  7  2  0
  7  8  1  0
  8  9  1  0
  9 10  1  0
 10 11  1  0
 11 12  2  0
 12 13  1  0
 13 14  1  0
 13 15  2  0
 15 16  1  0
  7  2  1  0
 16 10  2  0
  3 17  1  0
  4 18  1  0
  5 19  1  0
  6 20  1  0
  8 21  1  0
  8 22  1  0
  9 23  1  0
  9 24  1  0
 11 25  1  0
 12 26  1  0
 15 27  1  0
 16 28  1  0
M  RAD  1   1   3
M  END
$$$$
