
     RDKit          3D

 28 29  0  0  0  0  0  0  0  0999 V2000
    2.6461   -2.4069   -0.3989 N   0  0  0  0  0  1  0  0  0  0  0  0
    2.4505   -1.0785    0.0811 C   0  0  0  0  0  0  0  0  0  0  0  0
    3.1405   -0.6572    1.2241 C   0  0  0  0  0  0  0  0  0  0  0  0
    2.9576    0.6356    1.7206 C   0  0  0  0  0  0  0  0  0  0  0  0
    2.0833    1.5141    1.0779 C   0  0  0  0  0  0  0  0  0  0  0  0
    1.3918    1.1034   -0.0645 C   0  0  0  0  0  0  0  0  0  0  0  0
    1.5717   -0.1932   -0.5788 C   0  0  0  0  0  0  0  0  0  0  0  0
    0.7771   -0.6321   -1.7874 C   0  0  0  0  0  0  0  0  0  0  0  0
   -0.4760   -1.4260   -1.3911 C   0  0  0  0  0  0  0  0  0  0  0  0
   -1.4488   -0.5817   -0.6079 C   0  0  0  0  0  0  0  0  0  0  0  0
   -1.4642   -0.6334    0.7964 C   0  0  0  0  0  0  0  0  0  0  0  0
   -2.3354    0.1849    1.5217 C   0  0  0  0  0  0  0  0  0  0  0  0
   -3.1930    1.0626    0.8523 C   0  0  0  0  0  0  0  0  0  0  0  0
   -4.0357    1.8568    1.5574 F   0  0  0  0  0  0  0  0  0  0  0  0
   -3.1780    1.1250   -0.5442 C   0  0  0  0  0  0  0  0  0  0  0  0
   -2.3072    0.3092   -1.2732 C   0  0  0  0  0  0  0  0  0  0  0  0
    3.8169   -1.3338    1.7313 H   0  0  0  0  0  0  0  0  0  0  0  0
    3.4914    0.9555    2.6061 H   0  0  0  0  0  0  0  0  0  0  0  0
    1.9378    2.5133    1.4677 H   0  0  0  0  0  0  0  0  0  0  0  0
    0.7075    1.7933   -0.5430 H   0  0  0  0  0  0  0  0  0  0  0  0
    0.4815    0.2490   -2.3988 H   0  0  0  0  0  0  0  0  0  0  0  0
    1.4139   -1.2651   -2.4422 H   0  0  0  0  0  0  0  0  0  0  0  0
   -0.9731   -1.7945   -2.3147 H   0  0  0  0  0  0  0  0  0  0  0  0
   -0.1840   -2.3256   -0.8063 H   0  0  0  0  0  0  0  0  0  0  0  0
   -0.7955   -1.2989    1.3283 H   0  0  0  0  0  0  0  0  0  0  0  0
   -2.3416    0.1410    2.6032 H   0  0  0  0  0  0  0  0  0  0  0  0
   -3.8379    1.8085   -1.0629 H   0  0  0  0  0  0  0  0  0  0  0  0
   -2.2971    0.3748   -2.3542 H   0  0  0  0  0  0  0  0  0  0  0  0
  1  2  1  0
  2  3  2  0
  3  4  1  0
  4  5  2  0
  5  6  1  0
  6  7  2  0
  7  8  1  0
  8  9  1  0
  9 10  1  0
 10 11  1  0
 11 12  2  0
 12 13  1  0
 13 14  1  0
 13 15  2  0
 15 16  1  0
  7  2  1  0
 16 10  2  0
  3 17  1  0
  4 18  1  0
  5 19  1  0
  6 20  1  0
  8 21  1  0
  8 22  1  0
  9 23  1  0
  9 24  1  0
 11 25  1  0
 12 26  1  0
 15 27  1  0
 16 28  1  0
M  RAD  1   1   3
M  END
$$$$
