 xtb: 6.7.1 (edcfbbe)
          07312615283D

239260  0     0  0            999 V2000
    0.1900   -1.8454   -0.8132 N   0  0  0  0  0  0  0  0  0  0  0  0
   -0.0502   -1.1601    1.9419 N   0  0  0  0  0  0  0  0  0  0  0  0
   -0.3762   -1.0750   -3.1056 C   0  0  0  0  0  0  0  0  0  0  0  0
    0.0402   -2.0411   -2.1627 C   0  0  0  0  0  0  0  0  0  0  0  0
    0.4320   -3.3945   -2.5084 C   0  0  0  0  0  0  0  0  0  0  0  0
    0.4006   -3.8107   -3.5165 H   0  0  0  0  0  0  0  0  0  0  0  0
    0.8447   -3.9928   -1.3512 C   0  0  0  0  0  0  0  0  0  0  0  0
    1.2222   -5.0066   -1.2103 H   0  0  0  0  0  0  0  0  0  0  0  0
    0.6579   -3.0264   -0.2863 C   0  0  0  0  0  0  0  0  0  0  0  0
    0.8338   -3.3156    1.0811 C   0  0  0  0  0  0  0  0  0  0  0  0
    0.4332   -2.4337    2.1046 C   0  0  0  0  0  0  0  0  0  0  0  0
    0.3507   -2.8074    3.5043 C   0  0  0  0  0  0  0  0  0  0  0  0
    0.6708   -3.7698    3.9064 H   0  0  0  0  0  0  0  0  0  0  0  0
   -0.2311   -1.7620    4.1626 C   0  0  0  0  0  0  0  0  0  0  0  0
   -0.4803   -1.6756    5.2211 H   0  0  0  0  0  0  0  0  0  0  0  0
   -0.4657   -0.7250    3.1750 C   0  0  0  0  0  0  0  0  0  0  0  0
    1.3588   -4.6716    1.4728 C   0  0  0  0  0  0  0  0  0  0  0  0
    2.6968   -4.8368    1.9032 C   0  0  0  0  0  0  0  0  0  0  0  0
    3.1959   -6.0985    2.2747 C   0  0  0  0  0  0  0  0  0  0  0  0
    2.3525   -7.2114    2.2082 C   0  0  0  0  0  0  0  0  0  0  0  0
    2.7409   -8.1999    2.4869 H   0  0  0  0  0  0  0  0  0  0  0  0
    1.0251   -7.0882    1.7897 C   0  0  0  0  0  0  0  0  0  0  0  0
    0.5303   -5.8190    1.4343 C   0  0  0  0  0  0  0  0  0  0  0  0
   -0.7648    1.5269    1.2036 N   0  0  0  0  0  0  0  0  0  0  0  0
   -0.4757    0.8489   -1.5347 N   0  0  0  0  0  0  0  0  0  0  0  0
   -1.0106    0.5410    3.4742 C   0  0  0  0  0  0  0  0  0  0  0  0
   -1.0837    1.5946    2.5360 C   0  0  0  0  0  0  0  0  0  0  0  0
   -1.4421    2.9560    2.8797 C   0  0  0  0  0  0  0  0  0  0  0  0
   -1.7583    3.2800    3.8722 H   0  0  0  0  0  0  0  0  0  0  0  0
   -1.2869    3.7054    1.7463 C   0  0  0  0  0  0  0  0  0  0  0  0
   -1.4575    4.7740    1.6124 H   0  0  0  0  0  0  0  0  0  0  0  0
   -0.8982    2.7947    0.6898 C   0  0  0  0  0  0  0  0  0  0  0  0
   -0.7702    3.1569   -0.6648 C   0  0  0  0  0  0  0  0  0  0  0  0
   -0.6551    2.2010   -1.6919 C   0  0  0  0  0  0  0  0  0  0  0  0
   -0.8516    2.5059   -3.0953 C   0  0  0  0  0  0  0  0  0  0  0  0
   -1.0149    3.5079   -3.4938 H   0  0  0  0  0  0  0  0  0  0  0  0
   -0.8426    1.3161   -3.7656 C   0  0  0  0  0  0  0  0  0  0  0  0
   -0.9932    1.1330   -4.8303 H   0  0  0  0  0  0  0  0  0  0  0  0
   -0.5740    0.2837   -2.7823 C   0  0  0  0  0  0  0  0  0  0  0  0
   -0.8270    4.6085   -1.0561 C   0  0  0  0  0  0  0  0  0  0  0  0
    0.3669    5.2856   -1.4065 C   0  0  0  0  0  0  0  0  0  0  0  0
    0.3465    6.6269   -1.8305 C   0  0  0  0  0  0  0  0  0  0  0  0
   -0.8738    7.3078   -1.8771 C   0  0  0  0  0  0  0  0  0  0  0  0
   -0.8937    8.3574   -2.1988 H   0  0  0  0  0  0  0  0  0  0  0  0
   -2.0699    6.6754   -1.5250 C   0  0  0  0  0  0  0  0  0  0  0  0
   -2.0452    5.3240   -1.1317 C   0  0  0  0  0  0  0  0  0  0  0  0
   -0.1793   -0.1286    0.2032 Fe  0  0  0  0  0  0  0  0  0  0  0  0
   -2.4127   -0.7318    0.1736 Cl  0  0  0  0  0  0  0  0  0  0  0  0
   -1.5961    0.7644    4.8471 C   0  0  0  0  0  0  0  0  0  0  0  0
   -0.8266    1.2997    5.9143 C   0  0  0  0  0  0  0  0  0  0  0  0
   -2.9597    0.4247    5.0716 C   0  0  0  0  0  0  0  0  0  0  0  0
   -1.4070    1.4976    7.1832 C   0  0  0  0  0  0  0  0  0  0  0  0
    0.5266    1.6345    5.6484 N   0  0  0  0  0  0  0  0  0  0  0  0
   -3.5361    0.6475    6.3407 C   0  0  0  0  0  0  0  0  0  0  0  0
   -3.6901   -0.1590    4.0093 N   0  0  0  0  0  0  0  0  0  0  0  0
   -0.7932    1.8972    7.9949 H   0  0  0  0  0  0  0  0  0  0  0  0
   -2.7541    1.1743    7.3721 C   0  0  0  0  0  0  0  0  0  0  0  0
    1.5048    2.0364    6.5298 C   0  0  0  0  0  0  0  0  0  0  0  0
    0.8002    1.5276    4.6700 H   0  0  0  0  0  0  0  0  0  0  0  0
   -4.5905    0.4016    6.4899 H   0  0  0  0  0  0  0  0  0  0  0  0
   -5.0241   -0.5161    3.9861 C   0  0  0  0  0  0  0  0  0  0  0  0
   -3.1598   -0.3425    3.1523 H   0  0  0  0  0  0  0  0  0  0  0  0
   -3.2086    1.3367    8.3579 H   0  0  0  0  0  0  0  0  0  0  0  0
    1.3575    2.1502    7.7417 O   0  0  0  0  0  0  0  0  0  0  0  0
    2.8371    2.3413    5.8773 C   0  0  0  0  0  0  0  0  0  0  0  0
   -5.8232   -0.2689    4.8841 O   0  0  0  0  0  0  0  0  0  0  0  0
   -5.4419   -1.2670    2.7445 C   0  0  0  0  0  0  0  0  0  0  0  0
    4.0879    1.9428    6.6187 C   0  0  0  0  0  0  0  0  0  0  0  0
    2.8948    2.3385    4.7834 H   0  0  0  0  0  0  0  0  0  0  0  0
    3.6875    3.3982    6.5922 C   0  0  0  0  0  0  0  0  0  0  0  0
   -6.7894   -0.9528    2.1438 C   0  0  0  0  0  0  0  0  0  0  0  0
   -4.6607   -1.5913    2.0473 H   0  0  0  0  0  0  0  0  0  0  0  0
   -6.6277   -2.2193    2.9505 C   0  0  0  0  0  0  0  0  0  0  0  0
    3.9591    1.4249    7.5722 H   0  0  0  0  0  0  0  0  0  0  0  0
    4.9492    1.6508    6.0145 H   0  0  0  0  0  0  0  0  0  0  0  0
    3.2551    3.8067    7.5090 H   0  0  0  0  0  0  0  0  0  0  0  0
    4.4798    4.3518    5.7557 C   0  0  0  0  0  0  0  0  0  0  0  0
   -7.3715   -0.1589    2.6203 H   0  0  0  0  0  0  0  0  0  0  0  0
   -6.8738   -1.0431    1.0573 H   0  0  0  0  0  0  0  0  0  0  0  0
   -7.0511   -2.2158    3.9598 H   0  0  0  0  0  0  0  0  0  0  0  0
   -6.6204   -3.5417    2.2600 C   0  0  0  0  0  0  0  0  0  0  0  0
    4.5877    5.5477    6.3593 O   0  0  0  0  0  0  0  0  0  0  0  0
    4.9786    4.0827    4.6797 O   0  0  0  0  0  0  0  0  0  0  0  0
   -7.2455   -4.4766    3.0094 O   0  0  0  0  0  0  0  0  0  0  0  0
   -6.1349   -3.7669    1.1697 O   0  0  0  0  0  0  0  0  0  0  0  0
    5.3454    6.6023    5.6949 C   0  0  0  0  0  0  0  0  0  0  0  0
   -7.3502   -5.8263    2.4754 C   0  0  0  0  0  0  0  0  0  0  0  0
    4.3782    7.4903    4.8998 C   0  0  0  0  0  0  0  0  0  0  0  0
    6.1105    7.3524    6.7841 C   0  0  0  0  0  0  0  0  0  0  0  0
    6.0420    6.1040    4.9973 H   0  0  0  0  0  0  0  0  0  0  0  0
   -7.3616   -6.7732    3.6765 C   0  0  0  0  0  0  0  0  0  0  0  0
   -8.6037   -5.9286    1.5991 C   0  0  0  0  0  0  0  0  0  0  0  0
   -6.4524   -5.9988    1.8518 H   0  0  0  0  0  0  0  0  0  0  0  0
    3.8616    6.8994    4.1256 H   0  0  0  0  0  0  0  0  0  0  0  0
    3.6288    7.9350    5.5680 H   0  0  0  0  0  0  0  0  0  0  0  0
    4.9327    8.3021    4.4092 H   0  0  0  0  0  0  0  0  0  0  0  0
    6.7755    6.6726    7.3321 H   0  0  0  0  0  0  0  0  0  0  0  0
    6.7255    8.1484    6.3433 H   0  0  0  0  0  0  0  0  0  0  0  0
    5.4212    7.8088    7.5059 H   0  0  0  0  0  0  0  0  0  0  0  0
   -6.4484   -6.6485    4.2728 H   0  0  0  0  0  0  0  0  0  0  0  0
   -8.2314   -6.5759    4.3212 H   0  0  0  0  0  0  0  0  0  0  0  0
   -7.4214   -7.8171    3.3391 H   0  0  0  0  0  0  0  0  0  0  0  0
   -8.5368   -5.2282    0.7555 H   0  0  0  0  0  0  0  0  0  0  0  0
   -8.7084   -6.9469    1.1995 H   0  0  0  0  0  0  0  0  0  0  0  0
   -9.5073   -5.6991    2.1843 H   0  0  0  0  0  0  0  0  0  0  0  0
   -0.6134   -1.5435   -4.5196 C   0  0  0  0  0  0  0  0  0  0  0  0
    0.3549   -1.3492   -5.5417 C   0  0  0  0  0  0  0  0  0  0  0  0
   -1.8230   -2.2248   -4.8279 C   0  0  0  0  0  0  0  0  0  0  0  0
    0.1487   -1.8838   -6.8290 C   0  0  0  0  0  0  0  0  0  0  0  0
    1.5053   -0.5861   -5.2169 N   0  0  0  0  0  0  0  0  0  0  0  0
   -2.0175   -2.7639   -6.1174 C   0  0  0  0  0  0  0  0  0  0  0  0
   -2.8156   -2.2939   -3.8226 N   0  0  0  0  0  0  0  0  0  0  0  0
    0.9104   -1.7285   -7.5984 H   0  0  0  0  0  0  0  0  0  0  0  0
   -1.0287   -2.5927   -7.0907 C   0  0  0  0  0  0  0  0  0  0  0  0
    2.4596   -0.0579   -6.0592 C   0  0  0  0  0  0  0  0  0  0  0  0
    1.5211   -0.2548   -4.2508 H   0  0  0  0  0  0  0  0  0  0  0  0
   -2.9431   -3.3064   -6.3279 H   0  0  0  0  0  0  0  0  0  0  0  0
   -4.0522   -2.9053   -3.8742 C   0  0  0  0  0  0  0  0  0  0  0  0
   -2.6009   -1.7823   -2.9624 H   0  0  0  0  0  0  0  0  0  0  0  0
   -1.1853   -3.0160   -8.0914 H   0  0  0  0  0  0  0  0  0  0  0  0
    2.5700   -0.3195   -7.2512 O   0  0  0  0  0  0  0  0  0  0  0  0
    3.3687    0.9475   -5.3853 C   0  0  0  0  0  0  0  0  0  0  0  0
   -4.4349   -3.6214   -4.7941 O   0  0  0  0  0  0  0  0  0  0  0  0
   -4.9328   -2.5998   -2.6870 C   0  0  0  0  0  0  0  0  0  0  0  0
    3.7049    2.1903   -6.1717 C   0  0  0  0  0  0  0  0  0  0  0  0
    3.3015    1.0601   -4.2983 H   0  0  0  0  0  0  0  0  0  0  0  0
    4.7641    1.1296   -5.9828 C   0  0  0  0  0  0  0  0  0  0  0  0
   -5.8500   -3.6810   -2.1763 C   0  0  0  0  0  0  0  0  0  0  0  0
   -4.5683   -1.8807   -1.9440 H   0  0  0  0  0  0  0  0  0  0  0  0
   -6.4367   -2.5595   -2.9987 C   0  0  0  0  0  0  0  0  0  0  0  0
    3.2762    2.2721   -7.1738 H   0  0  0  0  0  0  0  0  0  0  0  0
    3.8212    3.1209   -5.6110 H   0  0  0  0  0  0  0  0  0  0  0  0
    5.0048    0.5041   -6.8465 H   0  0  0  0  0  0  0  0  0  0  0  0
    5.8873    1.4260   -5.0400 C   0  0  0  0  0  0  0  0  0  0  0  0
   -5.7935   -4.6516   -2.6760 H   0  0  0  0  0  0  0  0  0  0  0  0
   -6.0383   -3.6874   -1.0993 H   0  0  0  0  0  0  0  0  0  0  0  0
   -6.7012   -2.7932   -4.0346 H   0  0  0  0  0  0  0  0  0  0  0  0
   -7.2708   -1.5087   -2.3440 C   0  0  0  0  0  0  0  0  0  0  0  0
    7.0525    0.9524   -5.5107 O   0  0  0  0  0  0  0  0  0  0  0  0
    5.7662    2.0346   -3.9926 O   0  0  0  0  0  0  0  0  0  0  0  0
   -8.2569   -1.0944   -3.1686 O   0  0  0  0  0  0  0  0  0  0  0  0
   -7.1082   -1.0788   -1.2197 O   0  0  0  0  0  0  0  0  0  0  0  0
    8.2636    1.1748   -4.7305 C   0  0  0  0  0  0  0  0  0  0  0  0
   -9.1720   -0.0719   -2.6823 C   0  0  0  0  0  0  0  0  0  0  0  0
    9.1590   -0.0460   -4.9481 C   0  0  0  0  0  0  0  0  0  0  0  0
    8.9030    2.4962   -5.1665 C   0  0  0  0  0  0  0  0  0  0  0  0
    7.9541    1.2478   -3.6703 H   0  0  0  0  0  0  0  0  0  0  0  0
   -8.5859    1.3170   -2.9665 C   0  0  0  0  0  0  0  0  0  0  0  0
  -10.5146   -0.3245   -3.3672 C   0  0  0  0  0  0  0  0  0  0  0  0
   -9.2582   -0.2111   -1.5893 H   0  0  0  0  0  0  0  0  0  0  0  0
    8.6387   -0.9613   -4.6370 H   0  0  0  0  0  0  0  0  0  0  0  0
    9.4366   -0.1416   -6.0089 H   0  0  0  0  0  0  0  0  0  0  0  0
   10.0845    0.0531   -4.3647 H   0  0  0  0  0  0  0  0  0  0  0  0
    8.2159    3.3330   -4.9870 H   0  0  0  0  0  0  0  0  0  0  0  0
    9.8261    2.6804   -4.5999 H   0  0  0  0  0  0  0  0  0  0  0  0
    9.1618    2.4687   -6.2363 H   0  0  0  0  0  0  0  0  0  0  0  0
   -7.6249    1.4416   -2.4415 H   0  0  0  0  0  0  0  0  0  0  0  0
   -8.4251    1.4540   -4.0448 H   0  0  0  0  0  0  0  0  0  0  0  0
   -9.2768    2.0973   -2.6182 H   0  0  0  0  0  0  0  0  0  0  0  0
  -10.8819   -1.3361   -3.1438 H   0  0  0  0  0  0  0  0  0  0  0  0
  -11.2656    0.3975   -3.0194 H   0  0  0  0  0  0  0  0  0  0  0  0
  -10.4240   -0.2253   -4.4569 H   0  0  0  0  0  0  0  0  0  0  0  0
    4.2351   -6.2026    2.6079 H   0  0  0  0  0  0  0  0  0  0  0  0
    0.3722   -7.9670    1.7341 H   0  0  0  0  0  0  0  0  0  0  0  0
    1.2764    7.1251   -2.1279 H   0  0  0  0  0  0  0  0  0  0  0  0
   -3.0212    7.2194   -1.5577 H   0  0  0  0  0  0  0  0  0  0  0  0
    3.4589   -3.6907    1.9378 O   0  0  0  0  0  0  0  0  0  0  0  0
   -0.7534   -5.6112    0.9869 O   0  0  0  0  0  0  0  0  0  0  0  0
    1.5084    4.5153   -1.3753 O   0  0  0  0  0  0  0  0  0  0  0  0
   -3.1697    4.6320   -0.7459 O   0  0  0  0  0  0  0  0  0  0  0  0
    4.7922   -3.7484    2.3435 C   0  0  0  0  0  0  0  0  0  0  0  0
    5.7968   -4.0433    1.4119 C   0  0  0  0  0  0  0  0  0  0  0  0
    5.1167   -3.4321    3.6693 C   0  0  0  0  0  0  0  0  0  0  0  0
    7.1375   -4.0268    1.8187 C   0  0  0  0  0  0  0  0  0  0  0  0
    5.5187   -4.2762    0.3789 H   0  0  0  0  0  0  0  0  0  0  0  0
    6.4609   -3.4180    4.0644 C   0  0  0  0  0  0  0  0  0  0  0  0
    4.3094   -3.1965    4.3705 H   0  0  0  0  0  0  0  0  0  0  0  0
    7.4730   -3.7166    3.1428 C   0  0  0  0  0  0  0  0  0  0  0  0
    7.9270   -4.2549    1.0931 H   0  0  0  0  0  0  0  0  0  0  0  0
    6.7203   -3.1711    5.1000 H   0  0  0  0  0  0  0  0  0  0  0  0
    8.5254   -3.7058    3.4564 H   0  0  0  0  0  0  0  0  0  0  0  0
   -1.7409   -6.5777    1.1473 C   0  0  0  0  0  0  0  0  0  0  0  0
   -2.1349   -7.0183    2.4191 C   0  0  0  0  0  0  0  0  0  0  0  0
   -2.3940   -7.0429   -0.0024 C   0  0  0  0  0  0  0  0  0  0  0  0
   -3.1760   -7.9479    2.5318 C   0  0  0  0  0  0  0  0  0  0  0  0
   -1.6269   -6.6271    3.3070 H   0  0  0  0  0  0  0  0  0  0  0  0
   -3.4395   -7.9658    0.1248 C   0  0  0  0  0  0  0  0  0  0  0  0
   -2.0750   -6.6651   -0.9792 H   0  0  0  0  0  0  0  0  0  0  0  0
   -3.8293   -8.4263    1.3888 C   0  0  0  0  0  0  0  0  0  0  0  0
   -3.4840   -8.2976    3.5234 H   0  0  0  0  0  0  0  0  0  0  0  0
   -3.9522   -8.3295   -0.7723 H   0  0  0  0  0  0  0  0  0  0  0  0
   -4.6441   -9.1562    1.4842 H   0  0  0  0  0  0  0  0  0  0  0  0
    2.7864    5.0427   -1.2600 C   0  0  0  0  0  0  0  0  0  0  0  0
    3.1070    6.0981   -0.3910 C   0  0  0  0  0  0  0  0  0  0  0  0
    3.7968    4.3974   -1.9914 C   0  0  0  0  0  0  0  0  0  0  0  0
    4.4394    6.5160   -0.2789 C   0  0  0  0  0  0  0  0  0  0  0  0
    2.3188    6.5836    0.1949 H   0  0  0  0  0  0  0  0  0  0  0  0
    5.1244    4.8168   -1.8625 C   0  0  0  0  0  0  0  0  0  0  0  0
    3.5337    3.5624   -2.6486 H   0  0  0  0  0  0  0  0  0  0  0  0
    5.4514    5.8826   -1.0122 C   0  0  0  0  0  0  0  0  0  0  0  0
    4.6888    7.3440    0.3968 H   0  0  0  0  0  0  0  0  0  0  0  0
    5.8964    4.2927   -2.4368 H   0  0  0  0  0  0  0  0  0  0  0  0
    6.4922    6.2182   -0.9153 H   0  0  0  0  0  0  0  0  0  0  0  0
   -4.4453    5.0500   -1.1068 C   0  0  0  0  0  0  0  0  0  0  0  0
   -4.8021    5.2675   -2.4456 C   0  0  0  0  0  0  0  0  0  0  0  0
   -5.4024    5.1632   -0.0881 C   0  0  0  0  0  0  0  0  0  0  0  0
   -6.1214    5.6191   -2.7566 C   0  0  0  0  0  0  0  0  0  0  0  0
   -4.0485    5.1535   -3.2319 H   0  0  0  0  0  0  0  0  0  0  0  0
   -6.7199    5.5079   -0.4139 C   0  0  0  0  0  0  0  0  0  0  0  0
   -5.0973    4.9697    0.9451 H   0  0  0  0  0  0  0  0  0  0  0  0
   -7.0831    5.7432   -1.7458 C   0  0  0  0  0  0  0  0  0  0  0  0
   -6.4031    5.7894   -3.8014 H   0  0  0  0  0  0  0  0  0  0  0  0
   -7.4690    5.5951    0.3805 H   0  0  0  0  0  0  0  0  0  0  0  0
   -8.1162    6.0177   -1.9973 H   0  0  0  0  0  0  0  0  0  0  0  0
    1.3492    0.4280    0.3458 N   0  0  0  0  0  0  0  0  0  0  0  0
    2.4045    1.1593    0.5080 C   0  0  0  0  0  0  0  0  0  0  0  0
    2.4045    2.2303    1.4501 C   0  0  0  0  0  0  0  0  0  0  0  0
    3.4944    3.0508    1.5774 C   0  0  0  0  0  0  0  0  0  0  0  0
    4.6228    2.8522    0.7912 C   0  0  0  0  0  0  0  0  0  0  0  0
    4.6593    1.7932   -0.1061 C   0  0  0  0  0  0  0  0  0  0  0  0
    3.5987    0.9256   -0.2477 C   0  0  0  0  0  0  0  0  0  0  0  0
    3.6434   -0.3350   -1.0631 C   0  0  0  0  0  0  0  0  0  0  0  0
    4.2292   -1.4647   -0.1989 C   0  0  0  0  0  0  0  0  0  0  0  0
    5.7324   -1.2356   -0.3092 C   0  0  0  0  0  0  0  0  0  0  0  0
    5.9402   -0.8756   -1.7830 C   0  0  0  0  0  0  0  0  0  0  0  0
    4.6008   -0.2833   -2.2588 C   0  0  0  0  0  0  0  0  0  0  0  0
    1.5141    2.3820    2.0381 H   0  0  0  0  0  0  0  0  0  0  0  0
    3.4826    3.8527    2.3007 H   0  0  0  0  0  0  0  0  0  0  0  0
    5.4705    3.5102    0.8897 H   0  0  0  0  0  0  0  0  0  0  0  0
    5.5432    1.6553   -0.7074 H   0  0  0  0  0  0  0  0  0  0  0  0
    2.6164   -0.5741   -1.3615 H   0  0  0  0  0  0  0  0  0  0  0  0
    3.9537   -2.4264   -0.6339 H   0  0  0  0  0  0  0  0  0  0  0  0
    3.8612   -1.4374    0.8248 H   0  0  0  0  0  0  0  0  0  0  0  0
    6.0198   -0.4052    0.3360 H   0  0  0  0  0  0  0  0  0  0  0  0
    6.3151   -2.1032   -0.0124 H   0  0  0  0  0  0  0  0  0  0  0  0
    6.1811   -1.7700   -2.3587 H   0  0  0  0  0  0  0  0  0  0  0  0
    6.7615   -0.1713   -1.9123 H   0  0  0  0  0  0  0  0  0  0  0  0
    4.1992   -0.8831   -3.0768 H   0  0  0  0  0  0  0  0  0  0  0  0
    4.7245    0.7374   -2.6102 H   0  0  0  0  0  0  0  0  0  0  0  0
  1  4  4  0  0  0  0
  3  4  4  0  0  0  0
  4  5  1  0  0  0  0
  5  6  1  0  0  0  0
  5  7  2  0  0  0  0
  7  8  1  0  0  0  0
  1  9  4  0  0  0  0
  7  9  1  0  0  0  0
  9 10  4  0  0  0  0
  2 11  4  0  0  0  0
 10 11  4  0  0  0  0
 11 12  1  0  0  0  0
 12 13  1  0  0  0  0
 12 14  2  0  0  0  0
 14 15  1  0  0  0  0
  2 16  4  0  0  0  0
 14 16  1  0  0  0  0
 10 17  1  0  0  0  0
 17 18  4  0  0  0  0
 18 19  4  0  0  0  0
 19 20  4  0  0  0  0
 20 21  1  0  0  0  0
 20 22  4  0  0  0  0
 17 23  4  0  0  0  0
 22 23  4  0  0  0  0
 16 26  4  0  0  0  0
 24 27  4  0  0  0  0
 26 27  4  0  0  0  0
 27 28  1  0  0  0  0
 28 29  1  0  0  0  0
 28 30  2  0  0  0  0
 30 31  1  0  0  0  0
 24 32  4  0  0  0  0
 30 32  1  0  0  0  0
 32 33  4  0  0  0  0
 25 34  4  0  0  0  0
 33 34  4  0  0  0  0
 34 35  1  0  0  0  0
 35 36  1  0  0  0  0
 35 37  2  0  0  0  0
 37 38  1  0  0  0  0
  3 39  4  0  0  0  0
 25 39  4  0  0  0  0
 37 39  1  0  0  0  0
 33 40  1  0  0  0  0
 40 41  4  0  0  0  0
 41 42  4  0  0  0  0
 42 43  4  0  0  0  0
 43 44  1  0  0  0  0
 43 45  4  0  0  0  0
 40 46  4  0  0  0  0
 45 46  4  0  0  0  0
  1 47  1  0  0  0  0
  2 47  1  0  0  0  0
 24 47  1  0  0  0  0
 25 47  1  0  0  0  0
 47 48  1  0  0  0  0
 26 49  1  0  0  0  0
 49 50  4  0  0  0  0
 49 51  4  0  0  0  0
 50 52  4  0  0  0  0
 50 53  1  0  0  0  0
 51 54  4  0  0  0  0
 51 55  1  0  0  0  0
 52 56  1  0  0  0  0
 52 57  4  0  0  0  0
 54 57  4  0  0  0  0
 53 58  4  0  0  0  0
 53 59  1  0  0  0  0
 54 60  1  0  0  0  0
 55 61  4  0  0  0  0
 55 62  1  0  0  0  0
 57 63  1  0  0  0  0
 58 64  2  0  0  0  0
 58 65  1  0  0  0  0
 61 66  2  0  0  0  0
 61 67  1  0  0  0  0
 65 68  1  0  0  0  0
 65 69  1  0  0  0  0
 65 70  1  0  0  0  0
 68 70  1  0  0  0  0
 67 71  1  0  0  0  0
 67 72  1  0  0  0  0
 67 73  1  0  0  0  0
 71 73  1  0  0  0  0
 68 74  1  0  0  0  0
 68 75  1  0  0  0  0
 70 76  1  0  0  0  0
 70 77  1  0  0  0  0
 71 78  1  0  0  0  0
 71 79  1  0  0  0  0
 73 80  1  0  0  0  0
 73 81  1  0  0  0  0
 77 82  1  0  0  0  0
 77 83  2  0  0  0  0
 81 84  1  0  0  0  0
 81 85  2  0  0  0  0
 82 86  1  0  0  0  0
 84 87  1  0  0  0  0
 86 88  1  0  0  0  0
 86 89  1  0  0  0  0
 86 90  1  0  0  0  0
 87 91  1  0  0  0  0
 87 92  1  0  0  0  0
 87 93  1  0  0  0  0
 88 94  1  0  0  0  0
 88 95  1  0  0  0  0
 88 96  1  0  0  0  0
 89 97  1  0  0  0  0
 89 98  1  0  0  0  0
 89 99  1  0  0  0  0
 91100  1  0  0  0  0
 91101  1  0  0  0  0
 91102  1  0  0  0  0
 92103  1  0  0  0  0
 92104  1  0  0  0  0
 92105  1  0  0  0  0
  3106  1  0  0  0  0
106107  4  0  0  0  0
106108  4  0  0  0  0
107109  4  0  0  0  0
107110  1  0  0  0  0
108111  4  0  0  0  0
108112  1  0  0  0  0
109113  1  0  0  0  0
109114  4  0  0  0  0
111114  4  0  0  0  0
110115  4  0  0  0  0
110116  1  0  0  0  0
111117  1  0  0  0  0
112118  4  0  0  0  0
112119  1  0  0  0  0
114120  1  0  0  0  0
115121  2  0  0  0  0
115122  1  0  0  0  0
118123  2  0  0  0  0
118124  1  0  0  0  0
122125  1  0  0  0  0
122126  1  0  0  0  0
122127  1  0  0  0  0
125127  1  0  0  0  0
124128  1  0  0  0  0
124129  1  0  0  0  0
124130  1  0  0  0  0
128130  1  0  0  0  0
125131  1  0  0  0  0
125132  1  0  0  0  0
127133  1  0  0  0  0
127134  1  0  0  0  0
128135  1  0  0  0  0
128136  1  0  0  0  0
130137  1  0  0  0  0
130138  1  0  0  0  0
134139  1  0  0  0  0
134140  2  0  0  0  0
138141  1  0  0  0  0
138142  2  0  0  0  0
139143  1  0  0  0  0
141144  1  0  0  0  0
143145  1  0  0  0  0
143146  1  0  0  0  0
143147  1  0  0  0  0
144148  1  0  0  0  0
144149  1  0  0  0  0
144150  1  0  0  0  0
145151  1  0  0  0  0
145152  1  0  0  0  0
145153  1  0  0  0  0
146154  1  0  0  0  0
146155  1  0  0  0  0
146156  1  0  0  0  0
148157  1  0  0  0  0
148158  1  0  0  0  0
148159  1  0  0  0  0
149160  1  0  0  0  0
149161  1  0  0  0  0
149162  1  0  0  0  0
 19163  1  0  0  0  0
 22164  1  0  0  0  0
 42165  1  0  0  0  0
 45166  1  0  0  0  0
 18167  1  0  0  0  0
 23168  1  0  0  0  0
 41169  1  0  0  0  0
 46170  1  0  0  0  0
167171  1  0  0  0  0
171172  4  0  0  0  0
171173  4  0  0  0  0
172174  4  0  0  0  0
172175  1  0  0  0  0
173176  4  0  0  0  0
173177  1  0  0  0  0
174178  4  0  0  0  0
176178  4  0  0  0  0
174179  1  0  0  0  0
176180  1  0  0  0  0
178181  1  0  0  0  0
168182  1  0  0  0  0
182183  4  0  0  0  0
182184  4  0  0  0  0
183185  4  0  0  0  0
183186  1  0  0  0  0
184187  4  0  0  0  0
184188  1  0  0  0  0
185189  4  0  0  0  0
187189  4  0  0  0  0
185190  1  0  0  0  0
187191  1  0  0  0  0
189192  1  0  0  0  0
169193  1  0  0  0  0
193194  4  0  0  0  0
193195  4  0  0  0  0
194196  4  0  0  0  0
194197  1  0  0  0  0
195198  4  0  0  0  0
195199  1  0  0  0  0
196200  4  0  0  0  0
198200  4  0  0  0  0
196201  1  0  0  0  0
198202  1  0  0  0  0
200203  1  0  0  0  0
170204  1  0  0  0  0
204205  4  0  0  0  0
204206  4  0  0  0  0
205207  4  0  0  0  0
205208  1  0  0  0  0
206209  4  0  0  0  0
206210  1  0  0  0  0
207211  4  0  0  0  0
209211  4  0  0  0  0
207212  1  0  0  0  0
209213  1  0  0  0  0
211214  1  0  0  0  0
 47215  2  0  0  0  0
215216  4  0  0  0  0
216217  1  0  0  0  0
217218  2  0  0  0  0
218219  4  0  0  0  0
219220  4  0  0  0  0
216221  1  0  0  0  0
220221  4  0  0  0  0
221222  1  0  0  0  0
222223  1  0  0  0  0
223224  1  0  0  0  0
224225  1  0  0  0  0
222226  1  0  0  0  0
225226  1  0  0  0  0
217227  1  0  0  0  0
218228  1  0  0  0  0
219229  1  0  0  0  0
220230  1  0  0  0  0
222231  1  0  0  0  0
223232  1  0  0  0  0
223233  1  0  0  0  0
224234  1  0  0  0  0
224235  1  0  0  0  0
225236  1  0  0  0  0
225237  1  0  0  0  0
226238  1  0  0  0  0
226239  1  0  0  0  0
M  END
