
     RDKit          3D

 28 29  0  0  0  0  0  0  0  0999 V2000
   -0.9859    2.6770    1.8212 N   0  0  0  0  0  1  0  0  0  0  0  0
   -2.2795    2.2571    0.7564 S   0  0  0  0  0  0  0  0  0  0  0  0
   -3.5804    2.4825    1.4751 O   0  0  0  0  0  0  0  0  0  0  0  0
   -2.2467    3.1414   -0.4583 O   0  0  0  0  0  0  0  0  0  0  0  0
   -2.1337    0.5603    0.2625 C   0  0  0  0  0  0  0  0  0  0  0  0
   -3.1629   -0.3273    0.6234 C   0  0  0  0  0  0  0  0  0  0  0  0
   -3.1280   -1.6630    0.2231 C   0  0  0  0  0  0  0  0  0  0  0  0
   -2.0703   -2.1325   -0.5507 C   0  0  0  0  0  0  0  0  0  0  0  0
   -1.0367   -1.2710   -0.9167 C   0  0  0  0  0  0  0  0  0  0  0  0
   -1.0370    0.0760   -0.5041 C   0  0  0  0  0  0  0  0  0  0  0  0
    0.1284    0.9473   -0.9304 C   0  0  0  0  0  0  0  0  0  0  0  0
    1.4378    0.3924   -0.4266 C   0  0  0  0  0  0  0  0  0  0  0  0
    1.7354    0.4181    0.9465 C   0  0  0  0  0  0  0  0  0  0  0  0
    2.9425   -0.1078    1.4168 C   0  0  0  0  0  0  0  0  0  0  0  0
    3.8602   -0.6649    0.5218 C   0  0  0  0  0  0  0  0  0  0  0  0
    5.0298   -1.1754    0.9797 F   0  0  0  0  0  0  0  0  0  0  0  0
    3.5706   -0.6981   -0.8452 C   0  0  0  0  0  0  0  0  0  0  0  0
    2.3644   -0.1732   -1.3196 C   0  0  0  0  0  0  0  0  0  0  0  0
   -4.0047    0.0122    1.2121 H   0  0  0  0  0  0  0  0  0  0  0  0
   -3.9290   -2.3336    0.5065 H   0  0  0  0  0  0  0  0  0  0  0  0
   -2.0505   -3.1670   -0.8686 H   0  0  0  0  0  0  0  0  0  0  0  0
   -0.2263   -1.6583   -1.5219 H   0  0  0  0  0  0  0  0  0  0  0  0
    0.1311    1.0087   -2.0405 H   0  0  0  0  0  0  0  0  0  0  0  0
    0.0433    1.9890   -0.5709 H   0  0  0  0  0  0  0  0  0  0  0  0
    1.0311    0.8385    1.6518 H   0  0  0  0  0  0  0  0  0  0  0  0
    3.1645   -0.0850    2.4759 H   0  0  0  0  0  0  0  0  0  0  0  0
    4.2796   -1.1321   -1.5385 H   0  0  0  0  0  0  0  0  0  0  0  0
    2.1529   -0.2114   -2.3809 H   0  0  0  0  0  0  0  0  0  0  0  0
  1  2  1  0
  2  3  2  0
  2  4  2  0
  2  5  1  0
  5  6  2  0
  6  7  1  0
  7  8  2  0
  8  9  1  0
  9 10  2  0
 10 11  1  0
 11 12  1  0
 12 13  1  0
 13 14  2  0
 14 15  1  0
 15 16  1  0
 15 17  2  0
 17 18  1  0
 10  5  1  0
 18 12  2  0
  6 19  1  0
  7 20  1  0
  8 21  1  0
  9 22  1  0
 11 23  1  0
 11 24  1  0
 13 25  1  0
 14 26  1  0
 17 27  1  0
 18 28  1  0
M  RAD  1   1   3
M  END
$$$$
