
     RDKit          3D

 28 29  0  0  0  0  0  0  0  0999 V2000
   -2.7824   -1.4489    2.6684 N   0  0  0  0  0  1  0  0  0  0  0  0
   -1.5837   -1.3591    1.4261 S   0  0  0  0  0  0  0  0  0  0  0  0
   -0.2287   -1.3286    2.0734 O   0  0  0  0  0  0  0  0  0  0  0  0
   -1.7122   -2.5879    0.5717 O   0  0  0  0  0  0  0  0  0  0  0  0
   -1.8137    0.1073    0.4538 C   0  0  0  0  0  0  0  0  0  0  0  0
   -2.6880    1.0941    0.9424 C   0  0  0  0  0  0  0  0  0  0  0  0
   -2.8970    2.2784    0.2358 C   0  0  0  0  0  0  0  0  0  0  0  0
   -2.2318    2.5006   -0.9664 C   0  0  0  0  0  0  0  0  0  0  0  0
   -1.3543    1.5396   -1.4671 C   0  0  0  0  0  0  0  0  0  0  0  0
   -1.1310    0.3337   -0.7744 C   0  0  0  0  0  0  0  0  0  0  0  0
   -0.1470   -0.6550   -1.3681 C   0  0  0  0  0  0  0  0  0  0  0  0
    1.1698   -0.6640   -0.6319 C   0  0  0  0  0  0  0  0  0  0  0  0
    1.8838    0.5303   -0.4256 C   0  0  0  0  0  0  0  0  0  0  0  0
    3.1176    0.5107    0.2317 C   0  0  0  0  0  0  0  0  0  0  0  0
    3.6574   -0.7002    0.6735 C   0  0  0  0  0  0  0  0  0  0  0  0
    4.8544   -0.7170    1.3100 F   0  0  0  0  0  0  0  0  0  0  0  0
    2.9668   -1.8946    0.4517 C   0  0  0  0  0  0  0  0  0  0  0  0
    1.7328   -1.8797   -0.2055 C   0  0  0  0  0  0  0  0  0  0  0  0
   -3.2101    0.9562    1.8794 H   0  0  0  0  0  0  0  0  0  0  0  0
   -3.5737    3.0282    0.6251 H   0  0  0  0  0  0  0  0  0  0  0  0
   -2.3924    3.4225   -1.5105 H   0  0  0  0  0  0  0  0  0  0  0  0
   -0.8415    1.7421   -2.3994 H   0  0  0  0  0  0  0  0  0  0  0  0
   -0.6028   -1.6643   -1.3979 H   0  0  0  0  0  0  0  0  0  0  0  0
    0.0623   -0.4062   -2.4312 H   0  0  0  0  0  0  0  0  0  0  0  0
    1.4865    1.4757   -0.7723 H   0  0  0  0  0  0  0  0  0  0  0  0
    3.6567    1.4352    0.3942 H   0  0  0  0  0  0  0  0  0  0  0  0
    3.3882   -2.8338    0.7864 H   0  0  0  0  0  0  0  0  0  0  0  0
    1.2138   -2.8152   -0.3733 H   0  0  0  0  0  0  0  0  0  0  0  0
  1  2  1  0
  2  3  2  0
  2  4  2  0
  2  5  1  0
  5  6  2  0
  6  7  1  0
  7  8  2  0
  8  9  1  0
  9 10  2  0
 10 11  1  0
 11 12  1  0
 12 13  1  0
 13 14  2  0
 14 15  1  0
 15 16  1  0
 15 17  2  0
 17 18  1  0
 10  5  1  0
 18 12  2  0
  6 19  1  0
  7 20  1  0
  8 21  1  0
  9 22  1  0
 11 23  1  0
 11 24  1  0
 13 25  1  0
 14 26  1  0
 17 27  1  0
 18 28  1  0
M  RAD  1   1   3
M  END
$$$$
