
     RDKit          3D

 28 29  0  0  0  0  0  0  0  0999 V2000
   -2.8751   -1.7969    2.3382 N   0  0  0  0  0  1  0  0  0  0  0  0
   -1.5890   -1.5494    1.2099 S   0  0  0  0  0  0  0  0  0  0  0  0
   -0.2974   -1.4632    1.9715 O   0  0  0  0  0  0  0  0  0  0  0  0
   -1.5555   -2.7307    0.2826 O   0  0  0  0  0  0  0  0  0  0  0  0
   -1.8476   -0.0469    0.3018 C   0  0  0  0  0  0  0  0  0  0  0  0
   -2.8300    0.8454    0.7661 C   0  0  0  0  0  0  0  0  0  0  0  0
   -3.0684    2.0524    0.1090 C   0  0  0  0  0  0  0  0  0  0  0  0
   -2.3257    2.3922   -1.0181 C   0  0  0  0  0  0  0  0  0  0  0  0
   -1.3410    1.5265   -1.4927 C   0  0  0  0  0  0  0  0  0  0  0  0
   -1.0857    0.2998   -0.8494 C   0  0  0  0  0  0  0  0  0  0  0  0
    0.0144   -0.5805   -1.4089 C   0  0  0  0  0  0  0  0  0  0  0  0
    1.2637   -0.5417   -0.5642 C   0  0  0  0  0  0  0  0  0  0  0  0
    1.8791   -1.7385   -0.1571 C   0  0  0  0  0  0  0  0  0  0  0  0
    3.0531   -1.7066    0.6016 C   0  0  0  0  0  0  0  0  0  0  0  0
    3.6322   -0.4823    0.9459 C   0  0  0  0  0  0  0  0  0  0  0  0
    4.7712   -0.4537    1.6807 F   0  0  0  0  0  0  0  0  0  0  0  0
    3.0415    0.7123    0.5253 C   0  0  0  0  0  0  0  0  0  0  0  0
    1.8674    0.6850   -0.2334 C   0  0  0  0  0  0  0  0  0  0  0  0
   -3.4151    0.6155    1.6460 H   0  0  0  0  0  0  0  0  0  0  0  0
   -3.8286    2.7285    0.4787 H   0  0  0  0  0  0  0  0  0  0  0  0
   -2.5096    3.3315   -1.5235 H   0  0  0  0  0  0  0  0  0  0  0  0
   -0.7704    1.8197   -2.3654 H   0  0  0  0  0  0  0  0  0  0  0  0
    0.2906   -0.2544   -2.4352 H   0  0  0  0  0  0  0  0  0  0  0  0
   -0.3609   -1.6156   -1.5320 H   0  0  0  0  0  0  0  0  0  0  0  0
    1.4467   -2.6962   -0.4189 H   0  0  0  0  0  0  0  0  0  0  0  0
    3.5146   -2.6324    0.9202 H   0  0  0  0  0  0  0  0  0  0  0  0
    3.4952    1.6607    0.7829 H   0  0  0  0  0  0  0  0  0  0  0  0
    1.4304    1.6194   -0.5615 H   0  0  0  0  0  0  0  0  0  0  0  0
  1  2  1  0
  2  3  2  0
  2  4  2  0
  2  5  1  0
  5  6  2  0
  6  7  1  0
  7  8  2  0
  8  9  1  0
  9 10  2  0
 10 11  1  0
 11 12  1  0
 12 13  1  0
 13 14  2  0
 14 15  1  0
 15 16  1  0
 15 17  2  0
 17 18  1  0
 10  5  1  0
 18 12  2  0
  6 19  1  0
  7 20  1  0
  8 21  1  0
  9 22  1  0
 11 23  1  0
 11 24  1  0
 13 25  1  0
 14 26  1  0
 17 27  1  0
 18 28  1  0
M  RAD  1   1   3
M  END
$$$$
