
     RDKit          3D

 28 29  0  0  0  0  0  0  0  0999 V2000
    3.0082    2.4857    1.3165 N   0  0  0  0  0  1  0  0  0  0  0  0
    1.5933    1.8920    0.5204 S   0  0  0  0  0  0  0  0  0  0  0  0
    0.4523    1.9161    1.4968 O   0  0  0  0  0  0  0  0  0  0  0  0
    1.2955    2.8064   -0.6334 O   0  0  0  0  0  0  0  0  0  0  0  0
    1.8577    0.2317   -0.0475 C   0  0  0  0  0  0  0  0  0  0  0  0
    2.9859   -0.4584    0.4295 C   0  0  0  0  0  0  0  0  0  0  0  0
    3.2397   -1.7726    0.0372 C   0  0  0  0  0  0  0  0  0  0  0  0
    2.3682   -2.4222   -0.8322 C   0  0  0  0  0  0  0  0  0  0  0  0
    1.2388   -1.7605   -1.3126 C   0  0  0  0  0  0  0  0  0  0  0  0
    0.9642   -0.4316   -0.9350 C   0  0  0  0  0  0  0  0  0  0  0  0
   -0.2934    0.2164   -1.4796 C   0  0  0  0  0  0  0  0  0  0  0  0
   -1.3847    0.3093   -0.4422 C   0  0  0  0  0  0  0  0  0  0  0  0
   -1.8018   -0.8337    0.2637 C   0  0  0  0  0  0  0  0  0  0  0  0
   -2.8338   -0.7461    1.2028 C   0  0  0  0  0  0  0  0  0  0  0  0
   -3.4695    0.4767    1.4338 C   0  0  0  0  0  0  0  0  0  0  0  0
   -4.4706    0.5593    2.3443 F   0  0  0  0  0  0  0  0  0  0  0  0
   -3.0785    1.6126    0.7199 C   0  0  0  0  0  0  0  0  0  0  0  0
   -2.0470    1.5295   -0.2204 C   0  0  0  0  0  0  0  0  0  0  0  0
    3.6751    0.0149    1.1155 H   0  0  0  0  0  0  0  0  0  0  0  0
    4.1130   -2.2901    0.4130 H   0  0  0  0  0  0  0  0  0  0  0  0
    2.5651   -3.4436   -1.1315 H   0  0  0  0  0  0  0  0  0  0  0  0
    0.5714   -2.2924   -1.9795 H   0  0  0  0  0  0  0  0  0  0  0  0
   -0.6922   -0.3670   -2.3379 H   0  0  0  0  0  0  0  0  0  0  0  0
   -0.0489    1.2108   -1.9024 H   0  0  0  0  0  0  0  0  0  0  0  0
   -1.3289   -1.7916    0.0883 H   0  0  0  0  0  0  0  0  0  0  0  0
   -3.1431   -1.6286    1.7481 H   0  0  0  0  0  0  0  0  0  0  0  0
   -3.5759    2.5583    0.8924 H   0  0  0  0  0  0  0  0  0  0  0  0
   -1.7602    2.4186   -0.7680 H   0  0  0  0  0  0  0  0  0  0  0  0
  1  2  1  0
  2  3  2  0
  2  4  2  0
  2  5  1  0
  5  6  2  0
  6  7  1  0
  7  8  2  0
  8  9  1  0
  9 10  2  0
 10 11  1  0
 11 12  1  0
 12 13  1  0
 13 14  2  0
 14 15  1  0
 15 16  1  0
 15 17  2  0
 17 18  1  0
 10  5  1  0
 18 12  2  0
  6 19  1  0
  7 20  1  0
  8 21  1  0
  9 22  1  0
 11 23  1  0
 11 24  1  0
 13 25  1  0
 14 26  1  0
 17 27  1  0
 18 28  1  0
M  RAD  1   1   3
M  END
$$$$
