
     RDKit          3D

 28 29  0  0  0  0  0  0  0  0999 V2000
   -2.4393   -2.7141    1.9091 N   0  0  0  0  0  1  0  0  0  0  0  0
   -1.3618   -1.9850    0.7709 S   0  0  0  0  0  0  0  0  0  0  0  0
   -1.4843   -2.7343   -0.5252 O   0  0  0  0  0  0  0  0  0  0  0  0
    0.0396   -2.1049    1.2978 O   0  0  0  0  0  0  0  0  0  0  0  0
   -1.7704   -0.2729    0.5461 C   0  0  0  0  0  0  0  0  0  0  0  0
   -2.6609    0.3196    1.4586 C   0  0  0  0  0  0  0  0  0  0  0  0
   -3.0072    1.6662    1.3490 C   0  0  0  0  0  0  0  0  0  0  0  0
   -2.4651    2.4458    0.3312 C   0  0  0  0  0  0  0  0  0  0  0  0
   -1.5740    1.8819   -0.5811 C   0  0  0  0  0  0  0  0  0  0  0  0
   -1.2134    0.5232   -0.4941 C   0  0  0  0  0  0  0  0  0  0  0  0
   -0.2228   -0.0154   -1.5074 C   0  0  0  0  0  0  0  0  0  0  0  0
    1.1509   -0.2127   -0.9159 C   0  0  0  0  0  0  0  0  0  0  0  0
    1.8266   -1.4333   -1.0896 C   0  0  0  0  0  0  0  0  0  0  0  0
    3.1116   -1.6099   -0.5675 C   0  0  0  0  0  0  0  0  0  0  0  0
    3.7398   -0.5658    0.1167 C   0  0  0  0  0  0  0  0  0  0  0  0
    4.9863   -0.7388    0.6212 F   0  0  0  0  0  0  0  0  0  0  0  0
    3.0862    0.6593    0.2733 C   0  0  0  0  0  0  0  0  0  0  0  0
    1.8011    0.8402   -0.2469 C   0  0  0  0  0  0  0  0  0  0  0  0
   -3.0894   -0.2566    2.2673 H   0  0  0  0  0  0  0  0  0  0  0  0
   -3.6946    2.1075    2.0592 H   0  0  0  0  0  0  0  0  0  0  0  0
   -2.7320    3.4917    0.2511 H   0  0  0  0  0  0  0  0  0  0  0  0
   -1.1587    2.5132   -1.3571 H   0  0  0  0  0  0  0  0  0  0  0  0
   -0.1236    0.6844   -2.3656 H   0  0  0  0  0  0  0  0  0  0  0  0
   -0.6130   -0.9529   -1.9503 H   0  0  0  0  0  0  0  0  0  0  0  0
    1.3568   -2.2514   -1.6212 H   0  0  0  0  0  0  0  0  0  0  0  0
    3.6206   -2.5564   -0.6963 H   0  0  0  0  0  0  0  0  0  0  0  0
    3.5763    1.4717    0.7943 H   0  0  0  0  0  0  0  0  0  0  0  0
    1.3146    1.7998   -0.1274 H   0  0  0  0  0  0  0  0  0  0  0  0
  1  2  1  0
  2  3  2  0
  2  4  2  0
  2  5  1  0
  5  6  2  0
  6  7  1  0
  7  8  2  0
  8  9  1  0
  9 10  2  0
 10 11  1  0
 11 12  1  0
 12 13  1  0
 13 14  2  0
 14 15  1  0
 15 16  1  0
 15 17  2  0
 17 18  1  0
 10  5  1  0
 18 12  2  0
  6 19  1  0
  7 20  1  0
  8 21  1  0
  9 22  1  0
 11 23  1  0
 11 24  1  0
 13 25  1  0
 14 26  1  0
 17 27  1  0
 18 28  1  0
M  RAD  1   1   3
M  END
$$$$
