
     RDKit          3D

 28 29  0  0  0  0  0  0  0  0999 V2000
   -1.0028    3.2134    0.5719 N   0  0  0  0  0  1  0  0  0  0  0  0
   -2.2466    2.3611   -0.2706 S   0  0  0  0  0  0  0  0  0  0  0  0
   -2.1173    2.6012   -1.7485 O   0  0  0  0  0  0  0  0  0  0  0  0
   -3.5783    2.8900    0.1835 O   0  0  0  0  0  0  0  0  0  0  0  0
   -2.1265    0.6238    0.0635 C   0  0  0  0  0  0  0  0  0  0  0  0
   -3.2018   -0.0026    0.7182 C   0  0  0  0  0  0  0  0  0  0  0  0
   -3.1864   -1.3752    0.9659 C   0  0  0  0  0  0  0  0  0  0  0  0
   -2.1018   -2.1462    0.5570 C   0  0  0  0  0  0  0  0  0  0  0  0
   -1.0226   -1.5454   -0.0902 C   0  0  0  0  0  0  0  0  0  0  0  0
   -1.0039   -0.1573   -0.3299 C   0  0  0  0  0  0  0  0  0  0  0  0
    0.2106    0.4246   -1.0266 C   0  0  0  0  0  0  0  0  0  0  0  0
    1.4712    0.1539   -0.2433 C   0  0  0  0  0  0  0  0  0  0  0  0
    2.4286   -0.7565   -0.7235 C   0  0  0  0  0  0  0  0  0  0  0  0
    3.5889   -1.0135    0.0134 C   0  0  0  0  0  0  0  0  0  0  0  0
    3.8017   -0.3671    1.2343 C   0  0  0  0  0  0  0  0  0  0  0  0
    4.9268   -0.6185    1.9477 F   0  0  0  0  0  0  0  0  0  0  0  0
    2.8528    0.5365    1.7207 C   0  0  0  0  0  0  0  0  0  0  0  0
    1.6914    0.7963    0.9869 C   0  0  0  0  0  0  0  0  0  0  0  0
   -4.0645    0.5683    1.0349 H   0  0  0  0  0  0  0  0  0  0  0  0
   -4.0228   -1.8435    1.4687 H   0  0  0  0  0  0  0  0  0  0  0  0
   -2.0966   -3.2128    0.7413 H   0  0  0  0  0  0  0  0  0  0  0  0
   -0.1918   -2.1664   -0.4021 H   0  0  0  0  0  0  0  0  0  0  0  0
    0.2780   -0.0221   -2.0425 H   0  0  0  0  0  0  0  0  0  0  0  0
    0.1380    1.5166   -1.1814 H   0  0  0  0  0  0  0  0  0  0  0  0
    2.2764   -1.2695   -1.6649 H   0  0  0  0  0  0  0  0  0  0  0  0
    4.3220   -1.7156   -0.3624 H   0  0  0  0  0  0  0  0  0  0  0  0
    3.0151    1.0348    2.6678 H   0  0  0  0  0  0  0  0  0  0  0  0
    0.9619    1.4918    1.3799 H   0  0  0  0  0  0  0  0  0  0  0  0
  1  2  1  0
  2  3  2  0
  2  4  2  0
  2  5  1  0
  5  6  2  0
  6  7  1  0
  7  8  2  0
  8  9  1  0
  9 10  2  0
 10 11  1  0
 11 12  1  0
 12 13  1  0
 13 14  2  0
 14 15  1  0
 15 16  1  0
 15 17  2  0
 17 18  1  0
 10  5  1  0
 18 12  2  0
  6 19  1  0
  7 20  1  0
  8 21  1  0
  9 22  1  0
 11 23  1  0
 11 24  1  0
 13 25  1  0
 14 26  1  0
 17 27  1  0
 18 28  1  0
M  RAD  1   1   3
M  END
$$$$
