
     RDKit          3D

 28 29  0  0  0  0  0  0  0  0999 V2000
   -0.8971    2.4230    2.1373 N   0  0  0  0  0  1  0  0  0  0  0  0
   -2.2543    2.1020    1.1183 S   0  0  0  0  0  0  0  0  0  0  0  0
   -3.5061    2.2129    1.9431 O   0  0  0  0  0  0  0  0  0  0  0  0
   -2.3171    3.1229    0.0172 O   0  0  0  0  0  0  0  0  0  0  0  0
   -2.1185    0.4783    0.4186 C   0  0  0  0  0  0  0  0  0  0  0  0
   -3.1079   -0.4680    0.7393 C   0  0  0  0  0  0  0  0  0  0  0  0
   -3.0815   -1.7466    0.1824 C   0  0  0  0  0  0  0  0  0  0  0  0
   -2.0726   -2.0987   -0.7097 C   0  0  0  0  0  0  0  0  0  0  0  0
   -1.0787   -1.1776   -1.0388 C   0  0  0  0  0  0  0  0  0  0  0  0
   -1.0700    0.1115   -0.4708 C   0  0  0  0  0  0  0  0  0  0  0  0
    0.0511    1.0523   -0.8672 C   0  0  0  0  0  0  0  0  0  0  0  0
    1.3995    0.4714   -0.5203 C   0  0  0  0  0  0  0  0  0  0  0  0
    1.7899    0.3428    0.8234 C   0  0  0  0  0  0  0  0  0  0  0  0
    3.0337   -0.2076    1.1473 C   0  0  0  0  0  0  0  0  0  0  0  0
    3.8959   -0.6357    0.1339 C   0  0  0  0  0  0  0  0  0  0  0  0
    5.1011   -1.1702    0.4499 F   0  0  0  0  0  0  0  0  0  0  0  0
    3.5140   -0.5152   -1.2052 C   0  0  0  0  0  0  0  0  0  0  0  0
    2.2709    0.0348   -1.5333 C   0  0  0  0  0  0  0  0  0  0  0  0
   -3.9123   -0.2184    1.4184 H   0  0  0  0  0  0  0  0  0  0  0  0
   -3.8516   -2.4634    0.4370 H   0  0  0  0  0  0  0  0  0  0  0  0
   -2.0599   -3.0882   -1.1484 H   0  0  0  0  0  0  0  0  0  0  0  0
   -0.3062   -1.4734   -1.7379 H   0  0  0  0  0  0  0  0  0  0  0  0
   -0.0241    2.0426   -0.3822 H   0  0  0  0  0  0  0  0  0  0  0  0
   -0.0230    1.2432   -1.9600 H   0  0  0  0  0  0  0  0  0  0  0  0
    1.1296    0.6622    1.6186 H   0  0  0  0  0  0  0  0  0  0  0  0
    3.3272   -0.3039    2.1847 H   0  0  0  0  0  0  0  0  0  0  0  0
    4.1800   -0.8492   -1.9903 H   0  0  0  0  0  0  0  0  0  0  0  0
    1.9879    0.1163   -2.5754 H   0  0  0  0  0  0  0  0  0  0  0  0
  1  2  1  0
  2  3  2  0
  2  4  2  0
  2  5  1  0
  5  6  2  0
  6  7  1  0
  7  8  2  0
  8  9  1  0
  9 10  2  0
 10 11  1  0
 11 12  1  0
 12 13  1  0
 13 14  2  0
 14 15  1  0
 15 16  1  0
 15 17  2  0
 17 18  1  0
 10  5  1  0
 18 12  2  0
  6 19  1  0
  7 20  1  0
  8 21  1  0
  9 22  1  0
 11 23  1  0
 11 24  1  0
 13 25  1  0
 14 26  1  0
 17 27  1  0
 18 28  1  0
M  RAD  1   1   3
M  END
$$$$
