
     RDKit          3D

 28 29  0  0  0  0  0  0  0  0999 V2000
   -2.9681   -1.9192    2.1140 N   0  0  0  0  0  1  0  0  0  0  0  0
   -1.6377   -1.6112    1.0540 S   0  0  0  0  0  0  0  0  0  0  0  0
   -1.5683   -2.7371    0.0622 O   0  0  0  0  0  0  0  0  0  0  0  0
   -0.3775   -1.5735    1.8703 O   0  0  0  0  0  0  0  0  0  0  0  0
   -1.8583   -0.0580    0.2247 C   0  0  0  0  0  0  0  0  0  0  0  0
   -2.8574    0.8093    0.7003 C   0  0  0  0  0  0  0  0  0  0  0  0
   -3.0681    2.0530    0.1052 C   0  0  0  0  0  0  0  0  0  0  0  0
   -2.2807    2.4548   -0.9699 C   0  0  0  0  0  0  0  0  0  0  0  0
   -1.2787    1.6146   -1.4542 C   0  0  0  0  0  0  0  0  0  0  0  0
   -1.0506    0.3520   -0.8732 C   0  0  0  0  0  0  0  0  0  0  0  0
    0.0701   -0.4982   -1.4384 C   0  0  0  0  0  0  0  0  0  0  0  0
    1.2846   -0.5125   -0.5438 C   0  0  0  0  0  0  0  0  0  0  0  0
    1.8760    0.6910   -0.1188 C   0  0  0  0  0  0  0  0  0  0  0  0
    3.0188    0.6705    0.6863 C   0  0  0  0  0  0  0  0  0  0  0  0
    3.5910   -0.5483    1.0603 C   0  0  0  0  0  0  0  0  0  0  0  0
    4.6997   -0.5660    1.8404 F   0  0  0  0  0  0  0  0  0  0  0  0
    3.0248   -1.7488    0.6231 C   0  0  0  0  0  0  0  0  0  0  0  0
    1.8820   -1.7329   -0.1824 C   0  0  0  0  0  0  0  0  0  0  0  0
   -3.4775    0.5310    1.5415 H   0  0  0  0  0  0  0  0  0  0  0  0
   -3.8418    2.7092    0.4828 H   0  0  0  0  0  0  0  0  0  0  0  0
   -2.4433    3.4223   -1.4271 H   0  0  0  0  0  0  0  0  0  0  0  0
   -0.6734    1.9558   -2.2851 H   0  0  0  0  0  0  0  0  0  0  0  0
    0.3874   -0.1144   -2.4324 H   0  0  0  0  0  0  0  0  0  0  0  0
   -0.3011   -1.5232   -1.6361 H   0  0  0  0  0  0  0  0  0  0  0  0
    1.4533    1.6443   -0.4094 H   0  0  0  0  0  0  0  0  0  0  0  0
    3.4628    1.6009    1.0163 H   0  0  0  0  0  0  0  0  0  0  0  0
    3.4722   -2.6930    0.9056 H   0  0  0  0  0  0  0  0  0  0  0  0
    1.4595   -2.6724   -0.5162 H   0  0  0  0  0  0  0  0  0  0  0  0
  1  2  1  0
  2  3  2  0
  2  4  2  0
  2  5  1  0
  5  6  2  0
  6  7  1  0
  7  8  2  0
  8  9  1  0
  9 10  2  0
 10 11  1  0
 11 12  1  0
 12 13  1  0
 13 14  2  0
 14 15  1  0
 15 16  1  0
 15 17  2  0
 17 18  1  0
 10  5  1  0
 18 12  2  0
  6 19  1  0
  7 20  1  0
  8 21  1  0
  9 22  1  0
 11 23  1  0
 11 24  1  0
 13 25  1  0
 14 26  1  0
 17 27  1  0
 18 28  1  0
M  RAD  1   1   3
M  END
$$$$
