
     RDKit          3D

 28 29  0  0  0  0  0  0  0  0999 V2000
   -1.1852   -0.3578    3.1500 N   0  0  0  0  0  1  0  0  0  0  0  0
   -2.4587   -0.7660    2.0569 S   0  0  0  0  0  0  0  0  0  0  0  0
   -3.7582   -0.2819    2.6372 O   0  0  0  0  0  0  0  0  0  0  0  0
   -2.5345   -2.2584    1.8977 O   0  0  0  0  0  0  0  0  0  0  0  0
   -2.1695   -0.0122    0.4781 C   0  0  0  0  0  0  0  0  0  0  0  0
   -3.1047    0.9275    0.0095 C   0  0  0  0  0  0  0  0  0  0  0  0
   -2.9568    1.5187   -1.2453 C   0  0  0  0  0  0  0  0  0  0  0  0
   -1.8784    1.1755   -2.0559 C   0  0  0  0  0  0  0  0  0  0  0  0
   -0.9366    0.2490   -1.6097 C   0  0  0  0  0  0  0  0  0  0  0  0
   -1.0508   -0.3433   -0.3366 C   0  0  0  0  0  0  0  0  0  0  0  0
    0.0201   -1.3312    0.0832 C   0  0  0  0  0  0  0  0  0  0  0  0
    1.3858   -0.6902    0.0799 C   0  0  0  0  0  0  0  0  0  0  0  0
    1.7109    0.2871    1.0357 C   0  0  0  0  0  0  0  0  0  0  0  0
    2.9715    0.8919    1.0259 C   0  0  0  0  0  0  0  0  0  0  0  0
    3.9157    0.5282    0.0617 C   0  0  0  0  0  0  0  0  0  0  0  0
    5.1372    1.1166    0.0530 F   0  0  0  0  0  0  0  0  0  0  0  0
    3.5993   -0.4401   -0.8953 C   0  0  0  0  0  0  0  0  0  0  0  0
    2.3397   -1.0474   -0.8889 C   0  0  0  0  0  0  0  0  0  0  0  0
   -3.9605    1.2033    0.6112 H   0  0  0  0  0  0  0  0  0  0  0  0
   -3.6864    2.2385   -1.5934 H   0  0  0  0  0  0  0  0  0  0  0  0
   -1.7713    1.6280   -3.0333 H   0  0  0  0  0  0  0  0  0  0  0  0
   -0.1081   -0.0047   -2.2596 H   0  0  0  0  0  0  0  0  0  0  0  0
   -0.0081   -2.1952   -0.6160 H   0  0  0  0  0  0  0  0  0  0  0  0
   -0.1519   -1.7527    1.0905 H   0  0  0  0  0  0  0  0  0  0  0  0
    0.9873    0.5845    1.7829 H   0  0  0  0  0  0  0  0  0  0  0  0
    3.2144    1.6443    1.7651 H   0  0  0  0  0  0  0  0  0  0  0  0
    4.3292   -0.7200   -1.6440 H   0  0  0  0  0  0  0  0  0  0  0  0
    2.1086   -1.7920   -1.6404 H   0  0  0  0  0  0  0  0  0  0  0  0
  1  2  1  0
  2  3  2  0
  2  4  2  0
  2  5  1  0
  5  6  2  0
  6  7  1  0
  7  8  2  0
  8  9  1  0
  9 10  2  0
 10 11  1  0
 11 12  1  0
 12 13  1  0
 13 14  2  0
 14 15  1  0
 15 16  1  0
 15 17  2  0
 17 18  1  0
 10  5  1  0
 18 12  2  0
  6 19  1  0
  7 20  1  0
  8 21  1  0
  9 22  1  0
 11 23  1  0
 11 24  1  0
 13 25  1  0
 14 26  1  0
 17 27  1  0
 18 28  1  0
M  RAD  1   1   3
M  END
$$$$
