
     RDKit          3D

 28 29  0  0  0  0  0  0  0  0999 V2000
    1.3775   -1.6924   -2.5872 N   0  0  0  0  0  1  0  0  0  0  0  0
    2.6010   -1.4735   -1.3879 S   0  0  0  0  0  0  0  0  0  0  0  0
    3.9118   -1.2319   -2.0830 O   0  0  0  0  0  0  0  0  0  0  0  0
    2.7259   -2.7180   -0.5547 O   0  0  0  0  0  0  0  0  0  0  0  0
    2.1922   -0.0977   -0.3466 C   0  0  0  0  0  0  0  0  0  0  0  0
    3.0614    1.0076   -0.3346 C   0  0  0  0  0  0  0  0  0  0  0  0
    2.8186    2.0990    0.4993 C   0  0  0  0  0  0  0  0  0  0  0  0
    1.7096    2.1015    1.3408 C   0  0  0  0  0  0  0  0  0  0  0  0
    0.8320    1.0179    1.3424 C   0  0  0  0  0  0  0  0  0  0  0  0
    1.0423   -0.0850    0.4916 C   0  0  0  0  0  0  0  0  0  0  0  0
    0.0368   -1.2189    0.5407 C   0  0  0  0  0  0  0  0  0  0  0  0
   -1.3508   -0.7331    0.2025 C   0  0  0  0  0  0  0  0  0  0  0  0
   -1.6584   -0.3265   -1.1069 C   0  0  0  0  0  0  0  0  0  0  0  0
   -2.9402    0.1367   -1.4192 C   0  0  0  0  0  0  0  0  0  0  0  0
   -3.9233    0.1998   -0.4279 C   0  0  0  0  0  0  0  0  0  0  0  0
   -5.1653    0.6503   -0.7323 F   0  0  0  0  0  0  0  0  0  0  0  0
   -3.6249   -0.1988    0.8781 C   0  0  0  0  0  0  0  0  0  0  0  0
   -2.3442   -0.6627    1.1946 C   0  0  0  0  0  0  0  0  0  0  0  0
    3.9390    1.0277   -0.9671 H   0  0  0  0  0  0  0  0  0  0  0  0
    3.4983    2.9415    0.4992 H   0  0  0  0  0  0  0  0  0  0  0  0
    1.5288    2.9451    1.9944 H   0  0  0  0  0  0  0  0  0  0  0  0
   -0.0220    1.0411    2.0083 H   0  0  0  0  0  0  0  0  0  0  0  0
    0.0585   -1.6612    1.5605 H   0  0  0  0  0  0  0  0  0  0  0  0
    0.2828   -2.0448   -0.1515 H   0  0  0  0  0  0  0  0  0  0  0  0
   -0.9053   -0.3621   -1.8827 H   0  0  0  0  0  0  0  0  0  0  0  0
   -3.1694    0.4486   -2.4301 H   0  0  0  0  0  0  0  0  0  0  0  0
   -4.3851   -0.1474    1.6470 H   0  0  0  0  0  0  0  0  0  0  0  0
   -2.1277   -0.9628    2.2123 H   0  0  0  0  0  0  0  0  0  0  0  0
  1  2  1  0
  2  3  2  0
  2  4  2  0
  2  5  1  0
  5  6  2  0
  6  7  1  0
  7  8  2  0
  8  9  1  0
  9 10  2  0
 10 11  1  0
 11 12  1  0
 12 13  1  0
 13 14  2  0
 14 15  1  0
 15 16  1  0
 15 17  2  0
 17 18  1  0
 10  5  1  0
 18 12  2  0
  6 19  1  0
  7 20  1  0
  8 21  1  0
  9 22  1  0
 11 23  1  0
 11 24  1  0
 13 25  1  0
 14 26  1  0
 17 27  1  0
 18 28  1  0
M  RAD  1   1   3
M  END
$$$$
