
     RDKit          3D

 28 29  0  0  0  0  0  0  0  0999 V2000
    2.6137   -3.1109    0.6725 N   0  0  0  0  0  1  0  0  0  0  0  0
    1.3689   -1.9308    0.8872 S   0  0  0  0  0  0  0  0  0  0  0  0
    0.1037   -2.4560    0.2712 O   0  0  0  0  0  0  0  0  0  0  0  0
    1.1721   -1.7315    2.3629 O   0  0  0  0  0  0  0  0  0  0  0  0
    1.8253   -0.4053    0.1040 C   0  0  0  0  0  0  0  0  0  0  0  0
    2.9212   -0.4164   -0.7767 C   0  0  0  0  0  0  0  0  0  0  0  0
    3.3185    0.7448   -1.4393 C   0  0  0  0  0  0  0  0  0  0  0  0
    2.6246    1.9348   -1.2395 C   0  0  0  0  0  0  0  0  0  0  0  0
    1.5300    1.9683   -0.3764 C   0  0  0  0  0  0  0  0  0  0  0  0
    1.1132    0.8100    0.3080 C   0  0  0  0  0  0  0  0  0  0  0  0
   -0.0981    0.9168    1.2133 C   0  0  0  0  0  0  0  0  0  0  0  0
   -1.3275    0.2934    0.6002 C   0  0  0  0  0  0  0  0  0  0  0  0
   -2.0979   -0.6229    1.3376 C   0  0  0  0  0  0  0  0  0  0  0  0
   -3.2539   -1.1809    0.7832 C   0  0  0  0  0  0  0  0  0  0  0  0
   -3.6605   -0.8170   -0.5033 C   0  0  0  0  0  0  0  0  0  0  0  0
   -4.7824   -1.3584   -1.0384 F   0  0  0  0  0  0  0  0  0  0  0  0
   -2.9150    0.1114   -1.2347 C   0  0  0  0  0  0  0  0  0  0  0  0
   -1.7583    0.6717   -0.6844 C   0  0  0  0  0  0  0  0  0  0  0  0
    3.4730   -1.3278   -0.9622 H   0  0  0  0  0  0  0  0  0  0  0  0
    4.1647    0.7200   -2.1139 H   0  0  0  0  0  0  0  0  0  0  0  0
    2.9323    2.8335   -1.7584 H   0  0  0  0  0  0  0  0  0  0  0  0
    1.0011    2.9047   -0.2468 H   0  0  0  0  0  0  0  0  0  0  0  0
    0.1330    0.4725    2.2015 H   0  0  0  0  0  0  0  0  0  0  0  0
   -0.3314    1.9823    1.4284 H   0  0  0  0  0  0  0  0  0  0  0  0
   -1.8002   -0.9126    2.3376 H   0  0  0  0  0  0  0  0  0  0  0  0
   -3.8354   -1.8938    1.3535 H   0  0  0  0  0  0  0  0  0  0  0  0
   -3.2350    0.4014   -2.2272 H   0  0  0  0  0  0  0  0  0  0  0  0
   -1.1998    1.3988   -1.2599 H   0  0  0  0  0  0  0  0  0  0  0  0
  1  2  1  0
  2  3  2  0
  2  4  2  0
  2  5  1  0
  5  6  2  0
  6  7  1  0
  7  8  2  0
  8  9  1  0
  9 10  2  0
 10 11  1  0
 11 12  1  0
 12 13  1  0
 13 14  2  0
 14 15  1  0
 15 16  1  0
 15 17  2  0
 17 18  1  0
 10  5  1  0
 18 12  2  0
  6 19  1  0
  7 20  1  0
  8 21  1  0
  9 22  1  0
 11 23  1  0
 11 24  1  0
 13 25  1  0
 14 26  1  0
 17 27  1  0
 18 28  1  0
M  RAD  1   1   3
M  END
$$$$
