
     RDKit          3D

 28 29  0  0  0  0  0  0  0  0999 V2000
    1.4989   -2.6274   -1.5165 N   0  0  0  0  0  1  0  0  0  0  0  0
    2.6773   -1.8496   -0.5216 S   0  0  0  0  0  0  0  0  0  0  0  0
    2.8024   -2.5803    0.7857 O   0  0  0  0  0  0  0  0  0  0  0  0
    4.0045   -1.9016   -1.2256 O   0  0  0  0  0  0  0  0  0  0  0  0
    2.2041   -0.1673   -0.2212 C   0  0  0  0  0  0  0  0  0  0  0  0
    3.0476    0.8543   -0.6924 C   0  0  0  0  0  0  0  0  0  0  0  0
    2.7533    2.1952   -0.4454 C   0  0  0  0  0  0  0  0  0  0  0  0
    1.6175    2.5380    0.2828 C   0  0  0  0  0  0  0  0  0  0  0  0
    0.7646    1.5416    0.7562 C   0  0  0  0  0  0  0  0  0  0  0  0
    1.0273    0.1817    0.4988 C   0  0  0  0  0  0  0  0  0  0  0  0
    0.0462   -0.8427    1.0348 C   0  0  0  0  0  0  0  0  0  0  0  0
   -1.3401   -0.6097    0.4871 C   0  0  0  0  0  0  0  0  0  0  0  0
   -2.3669   -0.1344    1.3213 C   0  0  0  0  0  0  0  0  0  0  0  0
   -3.6464    0.0925    0.8050 C   0  0  0  0  0  0  0  0  0  0  0  0
   -3.9106   -0.1504   -0.5458 C   0  0  0  0  0  0  0  0  0  0  0  0
   -5.1517    0.0713   -1.0446 F   0  0  0  0  0  0  0  0  0  0  0  0
   -2.8943   -0.6192   -1.3829 C   0  0  0  0  0  0  0  0  0  0  0  0
   -1.6135   -0.8474   -0.8706 C   0  0  0  0  0  0  0  0  0  0  0  0
    3.9448    0.6179   -1.2489 H   0  0  0  0  0  0  0  0  0  0  0  0
    3.4137    2.9703   -0.8125 H   0  0  0  0  0  0  0  0  0  0  0  0
    1.3967    3.5788    0.4818 H   0  0  0  0  0  0  0  0  0  0  0  0
   -0.1110    1.8326    1.3234 H   0  0  0  0  0  0  0  0  0  0  0  0
    0.0442   -0.7772    2.1446 H   0  0  0  0  0  0  0  0  0  0  0  0
    0.3330   -1.8827    0.7945 H   0  0  0  0  0  0  0  0  0  0  0  0
   -2.1773    0.0637    2.3689 H   0  0  0  0  0  0  0  0  0  0  0  0
   -4.4324    0.4583    1.4531 H   0  0  0  0  0  0  0  0  0  0  0  0
   -3.0971   -0.8041   -2.4300 H   0  0  0  0  0  0  0  0  0  0  0  0
   -0.8347   -1.2024   -1.5322 H   0  0  0  0  0  0  0  0  0  0  0  0
  1  2  1  0
  2  3  2  0
  2  4  2  0
  2  5  1  0
  5  6  2  0
  6  7  1  0
  7  8  2  0
  8  9  1  0
  9 10  2  0
 10 11  1  0
 11 12  1  0
 12 13  1  0
 13 14  2  0
 14 15  1  0
 15 16  1  0
 15 17  2  0
 17 18  1  0
 10  5  1  0
 18 12  2  0
  6 19  1  0
  7 20  1  0
  8 21  1  0
  9 22  1  0
 11 23  1  0
 11 24  1  0
 13 25  1  0
 14 26  1  0
 17 27  1  0
 18 28  1  0
M  RAD  1   1   3
M  END
$$$$
