
     RDKit          3D

 28 29  0  0  0  0  0  0  0  0999 V2000
   -0.9809    3.1427   -0.7852 N   0  0  0  0  0  1  0  0  0  0  0  0
   -2.3191    2.0866   -1.0635 S   0  0  0  0  0  0  0  0  0  0  0  0
   -3.5816    2.8054   -0.6779 O   0  0  0  0  0  0  0  0  0  0  0  0
   -2.3967    1.7366   -2.5230 O   0  0  0  0  0  0  0  0  0  0  0  0
   -2.1347    0.6063   -0.1048 C   0  0  0  0  0  0  0  0  0  0  0  0
   -3.1028    0.3250    0.8755 C   0  0  0  0  0  0  0  0  0  0  0  0
   -3.0381   -0.8474    1.6284 C   0  0  0  0  0  0  0  0  0  0  0  0
   -2.0114   -1.7618    1.4097 C   0  0  0  0  0  0  0  0  0  0  0  0
   -1.0382   -1.5013    0.4457 C   0  0  0  0  0  0  0  0  0  0  0  0
   -1.0682   -0.3130   -0.3104 C   0  0  0  0  0  0  0  0  0  0  0  0
    0.0325   -0.0948   -1.3302 C   0  0  0  0  0  0  0  0  0  0  0  0
    1.3918   -0.0984   -0.6756 C   0  0  0  0  0  0  0  0  0  0  0  0
    2.2842   -1.1632   -0.8891 C   0  0  0  0  0  0  0  0  0  0  0  0
    3.5376   -1.1677   -0.2690 C   0  0  0  0  0  0  0  0  0  0  0  0
    3.9088   -0.1127    0.5693 C   0  0  0  0  0  0  0  0  0  0  0  0
    5.1240   -0.1196    1.1704 F   0  0  0  0  0  0  0  0  0  0  0  0
    3.0257    0.9479    0.7900 C   0  0  0  0  0  0  0  0  0  0  0  0
    1.7716    0.9561    0.1719 C   0  0  0  0  0  0  0  0  0  0  0  0
   -3.9202    1.0099    1.0579 H   0  0  0  0  0  0  0  0  0  0  0  0
   -3.7922   -1.0513    2.3777 H   0  0  0  0  0  0  0  0  0  0  0  0
   -1.9690   -2.6756    1.9882 H   0  0  0  0  0  0  0  0  0  0  0  0
   -0.2512   -2.2293    0.2910 H   0  0  0  0  0  0  0  0  0  0  0  0
   -0.0353   -0.8988   -2.0950 H   0  0  0  0  0  0  0  0  0  0  0  0
   -0.0729    0.8567   -1.8828 H   0  0  0  0  0  0  0  0  0  0  0  0
    2.0099   -1.9907   -1.5316 H   0  0  0  0  0  0  0  0  0  0  0  0
    4.2199   -1.9908   -0.4380 H   0  0  0  0  0  0  0  0  0  0  0  0
    3.3110    1.7635    1.4420 H   0  0  0  0  0  0  0  0  0  0  0  0
    1.0953    1.7796    0.3585 H   0  0  0  0  0  0  0  0  0  0  0  0
  1  2  1  0
  2  3  2  0
  2  4  2  0
  2  5  1  0
  5  6  2  0
  6  7  1  0
  7  8  2  0
  8  9  1  0
  9 10  2  0
 10 11  1  0
 11 12  1  0
 12 13  1  0
 13 14  2  0
 14 15  1  0
 15 16  1  0
 15 17  2  0
 17 18  1  0
 10  5  1  0
 18 12  2  0
  6 19  1  0
  7 20  1  0
  8 21  1  0
  9 22  1  0
 11 23  1  0
 11 24  1  0
 13 25  1  0
 14 26  1  0
 17 27  1  0
 18 28  1  0
M  RAD  1   1   3
M  END
$$$$
