
     RDKit          3D

 28 29  0  0  0  0  0  0  0  0999 V2000
   -2.5589   -2.3161   -2.2253 N   0  0  0  0  0  1  0  0  0  0  0  0
   -1.3826   -1.1324   -1.7740 S   0  0  0  0  0  0  0  0  0  0  0  0
   -0.0455   -1.8077   -1.6644 O   0  0  0  0  0  0  0  0  0  0  0  0
   -1.3395   -0.0900   -2.8547 O   0  0  0  0  0  0  0  0  0  0  0  0
   -1.8117   -0.4016   -0.2149 C   0  0  0  0  0  0  0  0  0  0  0  0
   -2.8142   -1.0210    0.5519 C   0  0  0  0  0  0  0  0  0  0  0  0
   -3.1838   -0.5079    1.7951 C   0  0  0  0  0  0  0  0  0  0  0  0
   -2.5543    0.6276    2.2969 C   0  0  0  0  0  0  0  0  0  0  0  0
   -1.5521    1.2546    1.5576 C   0  0  0  0  0  0  0  0  0  0  0  0
   -1.1653    0.7584    0.2974 C   0  0  0  0  0  0  0  0  0  0  0  0
   -0.0537    1.4792   -0.4394 C   0  0  0  0  0  0  0  0  0  0  0  0
    1.2509    0.7234   -0.3881 C   0  0  0  0  0  0  0  0  0  0  0  0
    1.7931    0.3123    0.8432 C   0  0  0  0  0  0  0  0  0  0  0  0
    3.0171   -0.3621    0.8857 C   0  0  0  0  0  0  0  0  0  0  0  0
    3.7182   -0.6173   -0.2958 C   0  0  0  0  0  0  0  0  0  0  0  0
    4.9054   -1.2707   -0.2523 F   0  0  0  0  0  0  0  0  0  0  0  0
    3.1993   -0.1915   -1.5215 C   0  0  0  0  0  0  0  0  0  0  0  0
    1.9757    0.4835   -1.5687 C   0  0  0  0  0  0  0  0  0  0  0  0
   -3.3134   -1.9114    0.1949 H   0  0  0  0  0  0  0  0  0  0  0  0
   -3.9579   -0.9961    2.3732 H   0  0  0  0  0  0  0  0  0  0  0  0
   -2.8399    1.0211    3.2639 H   0  0  0  0  0  0  0  0  0  0  0  0
   -1.0711    2.1305    1.9757 H   0  0  0  0  0  0  0  0  0  0  0  0
    0.1204    2.4837    0.0038 H   0  0  0  0  0  0  0  0  0  0  0  0
   -0.3659    1.6805   -1.4832 H   0  0  0  0  0  0  0  0  0  0  0  0
    1.2696    0.5128    1.7692 H   0  0  0  0  0  0  0  0  0  0  0  0
    3.4234   -0.6826    1.8364 H   0  0  0  0  0  0  0  0  0  0  0  0
    3.7458   -0.3817   -2.4362 H   0  0  0  0  0  0  0  0  0  0  0  0
    1.5910    0.8106   -2.5266 H   0  0  0  0  0  0  0  0  0  0  0  0
  1  2  1  0
  2  3  2  0
  2  4  2  0
  2  5  1  0
  5  6  2  0
  6  7  1  0
  7  8  2  0
  8  9  1  0
  9 10  2  0
 10 11  1  0
 11 12  1  0
 12 13  1  0
 13 14  2  0
 14 15  1  0
 15 16  1  0
 15 17  2  0
 17 18  1  0
 10  5  1  0
 18 12  2  0
  6 19  1  0
  7 20  1  0
  8 21  1  0
  9 22  1  0
 11 23  1  0
 11 24  1  0
 13 25  1  0
 14 26  1  0
 17 27  1  0
 18 28  1  0
M  RAD  1   1   3
M  END
$$$$
