
     RDKit          3D

 27 27  0  0  0  0  0  0  0  0999 V2000
    4.1687    0.7680    0.5411 C   0  0  0  0  0  0  0  0  0  0  0  0
    3.0396    0.9412   -0.4681 C   0  0  0  0  0  0  0  0  0  0  0  0
    2.2153   -0.2217   -0.5067 O   0  0  0  0  0  0  0  0  0  0  0  0
    1.2757   -0.5323    0.4826 C   0  0  0  0  0  0  0  0  0  0  0  0
    1.0855    0.2430    1.4593 O   0  0  0  0  0  0  0  0  0  0  0  0
    0.4509   -1.7747    0.3485 C   0  0  0  0  0  0  0  0  0  0  0  0
   -0.6711   -1.5987   -0.6823 C   0  0  0  0  0  0  0  0  0  0  0  0
   -1.6972   -0.5846   -0.2289 C   0  0  0  0  0  0  0  0  0  0  0  0
   -2.6894   -0.9747    0.6877 C   0  0  0  0  0  0  0  0  0  0  0  0
   -3.6327   -0.0516    1.1467 C   0  0  0  0  0  0  0  0  0  0  0  0
   -3.5920    1.2709    0.7016 C   0  0  0  0  0  0  0  0  0  0  0  0
   -2.6066    1.6746   -0.2021 C   0  0  0  0  0  0  0  0  0  0  0  0
   -1.6570    0.7572   -0.6683 C   0  0  0  0  0  0  0  0  0  0  0  0
   -0.6574    1.2001   -1.5838 N   0  0  0  0  0  1  0  0  0  0  0  0
    4.7667   -0.1332    0.2892 H   0  0  0  0  0  0  0  0  0  0  0  0
    4.8315    1.6584    0.5160 H   0  0  0  0  0  0  0  0  0  0  0  0
    3.7587    0.6581    1.5666 H   0  0  0  0  0  0  0  0  0  0  0  0
    2.4321    1.8384   -0.2188 H   0  0  0  0  0  0  0  0  0  0  0  0
    3.4818    1.0942   -1.4751 H   0  0  0  0  0  0  0  0  0  0  0  0
    0.0220   -2.0578    1.3348 H   0  0  0  0  0  0  0  0  0  0  0  0
    1.1130   -2.6048    0.0216 H   0  0  0  0  0  0  0  0  0  0  0  0
   -0.2392   -1.3213   -1.6681 H   0  0  0  0  0  0  0  0  0  0  0  0
   -1.1722   -2.5802   -0.8300 H   0  0  0  0  0  0  0  0  0  0  0  0
   -2.7301   -1.9951    1.0486 H   0  0  0  0  0  0  0  0  0  0  0  0
   -4.3942   -0.3616    1.8507 H   0  0  0  0  0  0  0  0  0  0  0  0
   -4.3228    1.9846    1.0594 H   0  0  0  0  0  0  0  0  0  0  0  0
   -2.5796    2.7034   -0.5388 H   0  0  0  0  0  0  0  0  0  0  0  0
  1  2  1  0
  2  3  1  0
  3  4  1  0
  4  5  2  0
  4  6  1  0
  6  7  1  0
  7  8  1  0
  8  9  2  0
  9 10  1  0
 10 11  2  0
 11 12  1  0
 12 13  2  0
 13 14  1  0
 13  8  1  0
  1 15  1  0
  1 16  1  0
  1 17  1  0
  2 18  1  0
  2 19  1  0
  6 20  1  0
  6 21  1  0
  7 22  1  0
  7 23  1  0
  9 24  1  0
 10 25  1  0
 11 26  1  0
 12 27  1  0
M  RAD  1  14   3
M  END
$$$$
