
     RDKit          3D

 27 27  0  0  0  0  0  0  0  0999 V2000
    4.0255   -0.1798   -1.3527 C   0  0  0  0  0  0  0  0  0  0  0  0
    2.9084    0.8498   -1.2283 C   0  0  0  0  0  0  0  0  0  0  0  0
    2.2407    0.7200    0.0250 O   0  0  0  0  0  0  0  0  0  0  0  0
    1.3247   -0.2995    0.3072 C   0  0  0  0  0  0  0  0  0  0  0  0
    1.0132   -1.1496   -0.5712 O   0  0  0  0  0  0  0  0  0  0  0  0
    0.6690   -0.3464    1.6524 C   0  0  0  0  0  0  0  0  0  0  0  0
   -0.4408    0.7048    1.7763 C   0  0  0  0  0  0  0  0  0  0  0  0
   -1.5988    0.4120    0.8490 C   0  0  0  0  0  0  0  0  0  0  0  0
   -2.5551   -0.5471    1.2266 C   0  0  0  0  0  0  0  0  0  0  0  0
   -3.6195   -0.8595    0.3769 C   0  0  0  0  0  0  0  0  0  0  0  0
   -3.7374   -0.2237   -0.8602 C   0  0  0  0  0  0  0  0  0  0  0  0
   -2.7899    0.7247   -1.2522 C   0  0  0  0  0  0  0  0  0  0  0  0
   -1.7198    1.0450   -0.4079 C   0  0  0  0  0  0  0  0  0  0  0  0
   -0.7630    2.0107   -0.8384 N   0  0  0  0  0  1  0  0  0  0  0  0
    3.6080   -1.2081   -1.3415 H   0  0  0  0  0  0  0  0  0  0  0  0
    4.7398   -0.0672   -0.5099 H   0  0  0  0  0  0  0  0  0  0  0  0
    4.5694   -0.0266   -2.3085 H   0  0  0  0  0  0  0  0  0  0  0  0
    2.1853    0.7391   -2.0656 H   0  0  0  0  0  0  0  0  0  0  0  0
    3.3518    1.8659   -1.2887 H   0  0  0  0  0  0  0  0  0  0  0  0
    0.2559   -1.3616    1.8417 H   0  0  0  0  0  0  0  0  0  0  0  0
    1.4396   -0.1496    2.4281 H   0  0  0  0  0  0  0  0  0  0  0  0
   -0.0240    1.7186    1.5922 H   0  0  0  0  0  0  0  0  0  0  0  0
   -0.8086    0.7082    2.8257 H   0  0  0  0  0  0  0  0  0  0  0  0
   -2.4738   -1.0548    2.1799 H   0  0  0  0  0  0  0  0  0  0  0  0
   -4.3521   -1.5975    0.6771 H   0  0  0  0  0  0  0  0  0  0  0  0
   -4.5620   -0.4681   -1.5174 H   0  0  0  0  0  0  0  0  0  0  0  0
   -2.8865    1.2098   -2.2155 H   0  0  0  0  0  0  0  0  0  0  0  0
  1  2  1  0
  2  3  1  0
  3  4  1  0
  4  5  2  0
  4  6  1  0
  6  7  1  0
  7  8  1  0
  8  9  2  0
  9 10  1  0
 10 11  2  0
 11 12  1  0
 12 13  2  0
 13 14  1  0
 13  8  1  0
  1 15  1  0
  1 16  1  0
  1 17  1  0
  2 18  1  0
  2 19  1  0
  6 20  1  0
  6 21  1  0
  7 22  1  0
  7 23  1  0
  9 24  1  0
 10 25  1  0
 11 26  1  0
 12 27  1  0
M  RAD  1  14   3
M  END
$$$$
