
     RDKit          3D

 27 27  0  0  0  0  0  0  0  0999 V2000
    4.1418    0.5805    0.8535 C   0  0  0  0  0  0  0  0  0  0  0  0
    3.1517    0.6633   -0.3025 C   0  0  0  0  0  0  0  0  0  0  0  0
    2.2529   -0.4434   -0.2764 O   0  0  0  0  0  0  0  0  0  0  0  0
    1.1857   -0.5473    0.6228 C   0  0  0  0  0  0  0  0  0  0  0  0
    0.9433    0.3761    1.4473 O   0  0  0  0  0  0  0  0  0  0  0  0
    0.2914   -1.7467    0.5662 C   0  0  0  0  0  0  0  0  0  0  0  0
   -0.6890   -1.6648   -0.6104 C   0  0  0  0  0  0  0  0  0  0  0  0
   -1.6818   -0.5373   -0.4376 C   0  0  0  0  0  0  0  0  0  0  0  0
   -2.7987   -0.7276    0.3949 C   0  0  0  0  0  0  0  0  0  0  0  0
   -3.7168    0.3063    0.5965 C   0  0  0  0  0  0  0  0  0  0  0  0
   -3.5270    1.5420   -0.0246 C   0  0  0  0  0  0  0  0  0  0  0  0
   -2.4173    1.7480   -0.8473 C   0  0  0  0  0  0  0  0  0  0  0  0
   -1.4917    0.7184   -1.0560 C   0  0  0  0  0  0  0  0  0  0  0  0
   -0.3636    0.9605   -1.8941 N   0  0  0  0  0  1  0  0  0  0  0  0
    4.6959   -0.3810    0.8093 H   0  0  0  0  0  0  0  0  0  0  0  0
    3.6101    0.6501    1.8252 H   0  0  0  0  0  0  0  0  0  0  0  0
    4.8676    1.4178    0.7838 H   0  0  0  0  0  0  0  0  0  0  0  0
    2.5882    1.6209   -0.2613 H   0  0  0  0  0  0  0  0  0  0  0  0
    3.7164    0.6372   -1.2581 H   0  0  0  0  0  0  0  0  0  0  0  0
    0.9228   -2.6529    0.4462 H   0  0  0  0  0  0  0  0  0  0  0  0
   -0.2675   -1.8529    1.5219 H   0  0  0  0  0  0  0  0  0  0  0  0
   -0.1277   -1.5644   -1.5644 H   0  0  0  0  0  0  0  0  0  0  0  0
   -1.2417   -2.6274   -0.6773 H   0  0  0  0  0  0  0  0  0  0  0  0
   -2.9563   -1.6779    0.8901 H   0  0  0  0  0  0  0  0  0  0  0  0
   -4.5749    0.1499    1.2374 H   0  0  0  0  0  0  0  0  0  0  0  0
   -4.2388    2.3418    0.1339 H   0  0  0  0  0  0  0  0  0  0  0  0
   -2.2753    2.7110   -1.3217 H   0  0  0  0  0  0  0  0  0  0  0  0
  1  2  1  0
  2  3  1  0
  3  4  1  0
  4  5  2  0
  4  6  1  0
  6  7  1  0
  7  8  1  0
  8  9  2  0
  9 10  1  0
 10 11  2  0
 11 12  1  0
 12 13  2  0
 13 14  1  0
 13  8  1  0
  1 15  1  0
  1 16  1  0
  1 17  1  0
  2 18  1  0
  2 19  1  0
  6 20  1  0
  6 21  1  0
  7 22  1  0
  7 23  1  0
  9 24  1  0
 10 25  1  0
 11 26  1  0
 12 27  1  0
M  RAD  1  14   3
M  END
$$$$
