
     RDKit          3D

 27 27  0  0  0  0  0  0  0  0999 V2000
    4.1060    1.0553    0.4367 C   0  0  0  0  0  0  0  0  0  0  0  0
    3.0705    0.1389    1.0779 C   0  0  0  0  0  0  0  0  0  0  0  0
    2.2679   -0.4900    0.0810 O   0  0  0  0  0  0  0  0  0  0  0  0
    1.2470    0.1683   -0.6135 C   0  0  0  0  0  0  0  0  0  0  0  0
    0.9595    1.3689   -0.3545 O   0  0  0  0  0  0  0  0  0  0  0  0
    0.4536   -0.5814   -1.6382 C   0  0  0  0  0  0  0  0  0  0  0  0
   -0.5730   -1.5151   -0.9851 C   0  0  0  0  0  0  0  0  0  0  0  0
   -1.6487   -0.7442   -0.2534 C   0  0  0  0  0  0  0  0  0  0  0  0
   -2.7145   -0.1909   -0.9846 C   0  0  0  0  0  0  0  0  0  0  0  0
   -3.7070    0.5513   -0.3391 C   0  0  0  0  0  0  0  0  0  0  0  0
   -3.6433    0.7545    1.0405 C   0  0  0  0  0  0  0  0  0  0  0  0
   -2.5856    0.2181    1.7782 C   0  0  0  0  0  0  0  0  0  0  0  0
   -1.5862   -0.5273    1.1410 C   0  0  0  0  0  0  0  0  0  0  0  0
   -0.5138   -1.0552    1.9185 N   0  0  0  0  0  1  0  0  0  0  0  0
    4.7358    0.4773   -0.2723 H   0  0  0  0  0  0  0  0  0  0  0  0
    3.6066    1.8819   -0.1103 H   0  0  0  0  0  0  0  0  0  0  0  0
    4.7569    1.4911    1.2236 H   0  0  0  0  0  0  0  0  0  0  0  0
    2.4315    0.7120    1.7847 H   0  0  0  0  0  0  0  0  0  0  0  0
    3.5997   -0.6490    1.6541 H   0  0  0  0  0  0  0  0  0  0  0  0
   -0.0589    0.1307   -2.3217 H   0  0  0  0  0  0  0  0  0  0  0  0
    1.1530   -1.1884   -2.2519 H   0  0  0  0  0  0  0  0  0  0  0  0
   -0.0575   -2.2292   -0.3070 H   0  0  0  0  0  0  0  0  0  0  0  0
   -1.0461   -2.1315   -1.7804 H   0  0  0  0  0  0  0  0  0  0  0  0
   -2.7745   -0.3330   -2.0566 H   0  0  0  0  0  0  0  0  0  0  0  0
   -4.5250    0.9716   -0.9100 H   0  0  0  0  0  0  0  0  0  0  0  0
   -4.4125    1.3307    1.5383 H   0  0  0  0  0  0  0  0  0  0  0  0
   -2.5415    0.3844    2.8474 H   0  0  0  0  0  0  0  0  0  0  0  0
  1  2  1  0
  2  3  1  0
  3  4  1  0
  4  5  2  0
  4  6  1  0
  6  7  1  0
  7  8  1  0
  8  9  2  0
  9 10  1  0
 10 11  2  0
 11 12  1  0
 12 13  2  0
 13 14  1  0
 13  8  1  0
  1 15  1  0
  1 16  1  0
  1 17  1  0
  2 18  1  0
  2 19  1  0
  6 20  1  0
  6 21  1  0
  7 22  1  0
  7 23  1  0
  9 24  1  0
 10 25  1  0
 11 26  1  0
 12 27  1  0
M  RAD  1  14   3
M  END
$$$$
