
     RDKit          3D

 27 27  0  0  0  0  0  0  0  0999 V2000
   -4.0754    1.1679   -0.1257 C   0  0  0  0  0  0  0  0  0  0  0  0
   -2.8047    1.2171   -0.9660 C   0  0  0  0  0  0  0  0  0  0  0  0
   -2.1042   -0.0229   -0.8934 O   0  0  0  0  0  0  0  0  0  0  0  0
   -1.3481   -0.4159    0.2166 C   0  0  0  0  0  0  0  0  0  0  0  0
   -1.2202    0.3460    1.2137 O   0  0  0  0  0  0  0  0  0  0  0  0
   -0.6417   -1.7363    0.1944 C   0  0  0  0  0  0  0  0  0  0  0  0
    0.5928   -1.6986   -0.7149 C   0  0  0  0  0  0  0  0  0  0  0  0
    1.6534   -0.7607   -0.1849 C   0  0  0  0  0  0  0  0  0  0  0  0
    1.7215    0.5561   -0.6736 C   0  0  0  0  0  0  0  0  0  0  0  0
    2.6744    1.4481   -0.1747 C   0  0  0  0  0  0  0  0  0  0  0  0
    3.5643    1.0378    0.8198 C   0  0  0  0  0  0  0  0  0  0  0  0
    3.5015   -0.2647    1.3205 C   0  0  0  0  0  0  0  0  0  0  0  0
    2.5496   -1.1654    0.8276 C   0  0  0  0  0  0  0  0  0  0  0  0
    2.4999   -2.4863    1.3624 N   0  0  0  0  0  1  0  0  0  0  0  0
   -3.8261    1.0280    0.9467 H   0  0  0  0  0  0  0  0  0  0  0  0
   -4.7199    0.3285   -0.4626 H   0  0  0  0  0  0  0  0  0  0  0  0
   -4.6353    2.1199   -0.2399 H   0  0  0  0  0  0  0  0  0  0  0  0
   -2.1509    2.0514   -0.6303 H   0  0  0  0  0  0  0  0  0  0  0  0
   -3.0841    1.4033   -2.0243 H   0  0  0  0  0  0  0  0  0  0  0  0
   -1.3455   -2.5070   -0.1859 H   0  0  0  0  0  0  0  0  0  0  0  0
   -0.3481   -2.0309    1.2257 H   0  0  0  0  0  0  0  0  0  0  0  0
    0.2898   -1.4010   -1.7433 H   0  0  0  0  0  0  0  0  0  0  0  0
    1.0106   -2.7249   -0.7994 H   0  0  0  0  0  0  0  0  0  0  0  0
    1.0326    0.8938   -1.4383 H   0  0  0  0  0  0  0  0  0  0  0  0
    2.7207    2.4594   -0.5574 H   0  0  0  0  0  0  0  0  0  0  0  0
    4.3010    1.7307    1.2055 H   0  0  0  0  0  0  0  0  0  0  0  0
    4.1923   -0.5734    2.0953 H   0  0  0  0  0  0  0  0  0  0  0  0
  1  2  1  0
  2  3  1  0
  3  4  1  0
  4  5  2  0
  4  6  1  0
  6  7  1  0
  7  8  1  0
  8  9  2  0
  9 10  1  0
 10 11  2  0
 11 12  1  0
 12 13  2  0
 13 14  1  0
 13  8  1  0
  1 15  1  0
  1 16  1  0
  1 17  1  0
  2 18  1  0
  2 19  1  0
  6 20  1  0
  6 21  1  0
  7 22  1  0
  7 23  1  0
  9 24  1  0
 10 25  1  0
 11 26  1  0
 12 27  1  0
M  RAD  1  14   3
M  END
$$$$
