
     RDKit          3D

 27 27  0  0  0  0  0  0  0  0999 V2000
    2.3318    2.0944    0.5439 C   0  0  0  0  0  0  0  0  0  0  0  0
    2.4678    0.9327   -0.4268 C   0  0  0  0  0  0  0  0  0  0  0  0
    1.6688   -0.1554    0.0224 O   0  0  0  0  0  0  0  0  0  0  0  0
    1.5313   -1.3424   -0.7023 C   0  0  0  0  0  0  0  0  0  0  0  0
    2.1646   -1.5179   -1.7789 O   0  0  0  0  0  0  0  0  0  0  0  0
    0.5693   -2.3853   -0.2232 C   0  0  0  0  0  0  0  0  0  0  0  0
   -0.8518   -2.1157   -0.7358 C   0  0  0  0  0  0  0  0  0  0  0  0
   -1.4157   -0.8263   -0.1817 C   0  0  0  0  0  0  0  0  0  0  0  0
   -1.3398    0.3502   -0.9489 C   0  0  0  0  0  0  0  0  0  0  0  0
   -1.8062    1.5626   -0.4344 C   0  0  0  0  0  0  0  0  0  0  0  0
   -2.3518    1.6144    0.8495 C   0  0  0  0  0  0  0  0  0  0  0  0
   -2.4305    0.4542    1.6234 C   0  0  0  0  0  0  0  0  0  0  0  0
   -1.9627   -0.7648    1.1178 C   0  0  0  0  0  0  0  0  0  0  0  0
   -2.0429   -1.9321    1.9328 N   0  0  0  0  0  1  0  0  0  0  0  0
    2.9496    2.9488    0.1957 H   0  0  0  0  0  0  0  0  0  0  0  0
    2.6760    1.7870    1.5540 H   0  0  0  0  0  0  0  0  0  0  0  0
    1.2700    2.4160    0.6026 H   0  0  0  0  0  0  0  0  0  0  0  0
    2.1270    1.2578   -1.4340 H   0  0  0  0  0  0  0  0  0  0  0  0
    3.5325    0.6187   -0.4835 H   0  0  0  0  0  0  0  0  0  0  0  0
    0.9006   -3.3838   -0.5823 H   0  0  0  0  0  0  0  0  0  0  0  0
    0.5761   -2.4107    0.8877 H   0  0  0  0  0  0  0  0  0  0  0  0
   -0.8467   -2.0918   -1.8481 H   0  0  0  0  0  0  0  0  0  0  0  0
   -1.5080   -2.9642   -0.4450 H   0  0  0  0  0  0  0  0  0  0  0  0
   -0.9067    0.3309   -1.9414 H   0  0  0  0  0  0  0  0  0  0  0  0
   -1.7398    2.4637   -1.0302 H   0  0  0  0  0  0  0  0  0  0  0  0
   -2.7111    2.5550    1.2466 H   0  0  0  0  0  0  0  0  0  0  0  0
   -2.8515    0.5040    2.6198 H   0  0  0  0  0  0  0  0  0  0  0  0
  1  2  1  0
  2  3  1  0
  3  4  1  0
  4  5  2  0
  4  6  1  0
  6  7  1  0
  7  8  1  0
  8  9  2  0
  9 10  1  0
 10 11  2  0
 11 12  1  0
 12 13  2  0
 13 14  1  0
 13  8  1  0
  1 15  1  0
  1 16  1  0
  1 17  1  0
  2 18  1  0
  2 19  1  0
  6 20  1  0
  6 21  1  0
  7 22  1  0
  7 23  1  0
  9 24  1  0
 10 25  1  0
 11 26  1  0
 12 27  1  0
M  RAD  1  14   3
M  END
$$$$
