
     RDKit          3D

 27 27  0  0  0  0  0  0  0  0999 V2000
    2.5978    1.8356    0.0278 C   0  0  0  0  0  0  0  0  0  0  0  0
    2.3578    0.7132    1.0243 C   0  0  0  0  0  0  0  0  0  0  0  0
    1.5928   -0.3141    0.4049 O   0  0  0  0  0  0  0  0  0  0  0  0
    1.1508   -1.4472    1.0932 C   0  0  0  0  0  0  0  0  0  0  0  0
    1.4638   -1.6311    2.3011 O   0  0  0  0  0  0  0  0  0  0  0  0
    0.2416   -2.4155    0.4014 C   0  0  0  0  0  0  0  0  0  0  0  0
   -1.2276   -1.9883    0.5198 C   0  0  0  0  0  0  0  0  0  0  0  0
   -1.4927   -0.6787   -0.1888 C   0  0  0  0  0  0  0  0  0  0  0  0
   -1.4950    0.5201    0.5469 C   0  0  0  0  0  0  0  0  0  0  0  0
   -1.6847    1.7457   -0.0965 C   0  0  0  0  0  0  0  0  0  0  0  0
   -1.8728    1.7886   -1.4791 C   0  0  0  0  0  0  0  0  0  0  0  0
   -1.8698    0.6060   -2.2224 C   0  0  0  0  0  0  0  0  0  0  0  0
   -1.6773   -0.6267   -1.5871 C   0  0  0  0  0  0  0  0  0  0  0  0
   -1.6658   -1.8183   -2.3703 N   0  0  0  0  0  1  0  0  0  0  0  0
    3.1904    2.6429    0.5073 H   0  0  0  0  0  0  0  0  0  0  0  0
    1.6263    2.2535   -0.3125 H   0  0  0  0  0  0  0  0  0  0  0  0
    3.1566    1.4497   -0.8509 H   0  0  0  0  0  0  0  0  0  0  0  0
    1.8049    1.1163    1.9007 H   0  0  0  0  0  0  0  0  0  0  0  0
    3.3334    0.3026    1.3633 H   0  0  0  0  0  0  0  0  0  0  0  0
    0.3637   -3.4228    0.8552 H   0  0  0  0  0  0  0  0  0  0  0  0
    0.5315   -2.4936   -0.6685 H   0  0  0  0  0  0  0  0  0  0  0  0
   -1.5066   -1.9127    1.5942 H   0  0  0  0  0  0  0  0  0  0  0  0
   -1.8713   -2.7833    0.0856 H   0  0  0  0  0  0  0  0  0  0  0  0
   -1.3365    0.5066    1.6182 H   0  0  0  0  0  0  0  0  0  0  0  0
   -1.6806    2.6635    0.4771 H   0  0  0  0  0  0  0  0  0  0  0  0
   -2.0181    2.7393   -1.9756 H   0  0  0  0  0  0  0  0  0  0  0  0
   -2.0126    0.6486   -3.2950 H   0  0  0  0  0  0  0  0  0  0  0  0
  1  2  1  0
  2  3  1  0
  3  4  1  0
  4  5  2  0
  4  6  1  0
  6  7  1  0
  7  8  1  0
  8  9  2  0
  9 10  1  0
 10 11  2  0
 11 12  1  0
 12 13  2  0
 13 14  1  0
 13  8  1  0
  1 15  1  0
  1 16  1  0
  1 17  1  0
  2 18  1  0
  2 19  1  0
  6 20  1  0
  6 21  1  0
  7 22  1  0
  7 23  1  0
  9 24  1  0
 10 25  1  0
 11 26  1  0
 12 27  1  0
M  RAD  1  14   3
M  END
$$$$
