
     RDKit          3D

 27 27  0  0  0  0  0  0  0  0999 V2000
    2.4701    0.3535    2.0414 C   0  0  0  0  0  0  0  0  0  0  0  0
    2.3237    1.1333    0.7449 C   0  0  0  0  0  0  0  0  0  0  0  0
    1.6176    0.3439   -0.2050 O   0  0  0  0  0  0  0  0  0  0  0  0
    1.2647    0.8198   -1.4707 C   0  0  0  0  0  0  0  0  0  0  0  0
    1.6115    1.9730   -1.8459 O   0  0  0  0  0  0  0  0  0  0  0  0
    0.4095   -0.0292   -2.3597 C   0  0  0  0  0  0  0  0  0  0  0  0
   -1.0825    0.1731   -2.0628 C   0  0  0  0  0  0  0  0  0  0  0  0
   -1.4472   -0.2868   -0.6689 C   0  0  0  0  0  0  0  0  0  0  0  0
   -1.5158    0.6525    0.3757 C   0  0  0  0  0  0  0  0  0  0  0  0
   -1.7984    0.2413    1.6807 C   0  0  0  0  0  0  0  0  0  0  0  0
   -2.0144   -1.1099    1.9575 C   0  0  0  0  0  0  0  0  0  0  0  0
   -1.9463   -2.0538    0.9301 C   0  0  0  0  0  0  0  0  0  0  0  0
   -1.6605   -1.6518   -0.3803 C   0  0  0  0  0  0  0  0  0  0  0  0
   -1.5841   -2.6366   -1.4087 N   0  0  0  0  0  1  0  0  0  0  0  0
    1.4668    0.0998    2.4456 H   0  0  0  0  0  0  0  0  0  0  0  0
    3.0371   -0.5837    1.8585 H   0  0  0  0  0  0  0  0  0  0  0  0
    3.0164    0.9667    2.7887 H   0  0  0  0  0  0  0  0  0  0  0  0
    1.7614    2.0712    0.9455 H   0  0  0  0  0  0  0  0  0  0  0  0
    3.3306    1.3870    0.3483 H   0  0  0  0  0  0  0  0  0  0  0  0
    0.6067    0.2352   -3.4212 H   0  0  0  0  0  0  0  0  0  0  0  0
    0.6842   -1.0975   -2.2249 H   0  0  0  0  0  0  0  0  0  0  0  0
   -1.3461    1.2452   -2.2001 H   0  0  0  0  0  0  0  0  0  0  0  0
   -1.6797   -0.3931   -2.8097 H   0  0  0  0  0  0  0  0  0  0  0  0
   -1.3370    1.7029    0.1816 H   0  0  0  0  0  0  0  0  0  0  0  0
   -1.8449    0.9706    2.4791 H   0  0  0  0  0  0  0  0  0  0  0  0
   -2.2318   -1.4264    2.9694 H   0  0  0  0  0  0  0  0  0  0  0  0
   -2.1113   -3.1003    1.1541 H   0  0  0  0  0  0  0  0  0  0  0  0
  1  2  1  0
  2  3  1  0
  3  4  1  0
  4  5  2  0
  4  6  1  0
  6  7  1  0
  7  8  1  0
  8  9  2  0
  9 10  1  0
 10 11  2  0
 11 12  1  0
 12 13  2  0
 13 14  1  0
 13  8  1  0
  1 15  1  0
  1 16  1  0
  1 17  1  0
  2 18  1  0
  2 19  1  0
  6 20  1  0
  6 21  1  0
  7 22  1  0
  7 23  1  0
  9 24  1  0
 10 25  1  0
 11 26  1  0
 12 27  1  0
M  RAD  1  14   3
M  END
$$$$
