
     RDKit          3D

 27 27  0  0  0  0  0  0  0  0999 V2000
    4.0200   -1.3834   -0.2123 C   0  0  0  0  0  0  0  0  0  0  0  0
    2.7131   -1.4643   -0.9925 C   0  0  0  0  0  0  0  0  0  0  0  0
    2.0678   -0.1931   -1.0279 O   0  0  0  0  0  0  0  0  0  0  0  0
    1.3775    0.3503    0.0613 C   0  0  0  0  0  0  0  0  0  0  0  0
    1.2610   -0.2944    1.1392 O   0  0  0  0  0  0  0  0  0  0  0  0
    0.7256    1.6910   -0.0770 C   0  0  0  0  0  0  0  0  0  0  0  0
   -0.5788    1.6044   -0.8790 C   0  0  0  0  0  0  0  0  0  0  0  0
   -1.6377    0.8112   -0.1466 C   0  0  0  0  0  0  0  0  0  0  0  0
   -2.3814    1.4346    0.8708 C   0  0  0  0  0  0  0  0  0  0  0  0
   -3.3457    0.7183    1.5844 C   0  0  0  0  0  0  0  0  0  0  0  0
   -3.5737   -0.6283    1.2953 C   0  0  0  0  0  0  0  0  0  0  0  0
   -2.8362   -1.2628    0.2931 C   0  0  0  0  0  0  0  0  0  0  0  0
   -1.8678   -0.5537   -0.4279 C   0  0  0  0  0  0  0  0  0  0  0  0
   -1.1242   -1.2301   -1.4394 N   0  0  0  0  0  1  0  0  0  0  0  0
    4.5349   -2.3666   -0.2439 H   0  0  0  0  0  0  0  0  0  0  0  0
    3.8233   -1.1184    0.8473 H   0  0  0  0  0  0  0  0  0  0  0  0
    4.6831   -0.6151   -0.6631 H   0  0  0  0  0  0  0  0  0  0  0  0
    2.9384   -1.7751   -2.0343 H   0  0  0  0  0  0  0  0  0  0  0  0
    2.0408   -2.2274   -0.5430 H   0  0  0  0  0  0  0  0  0  0  0  0
    1.4273    2.3726   -0.6035 H   0  0  0  0  0  0  0  0  0  0  0  0
    0.5277    2.1259    0.9274 H   0  0  0  0  0  0  0  0  0  0  0  0
   -0.9550    2.6360   -1.0541 H   0  0  0  0  0  0  0  0  0  0  0  0
   -0.3772    1.1748   -1.8841 H   0  0  0  0  0  0  0  0  0  0  0  0
   -2.2113    2.4767    1.1125 H   0  0  0  0  0  0  0  0  0  0  0  0
   -3.9149    1.2072    2.3645 H   0  0  0  0  0  0  0  0  0  0  0  0
   -4.3203   -1.1816    1.8501 H   0  0  0  0  0  0  0  0  0  0  0  0
   -3.0163   -2.3088    0.0783 H   0  0  0  0  0  0  0  0  0  0  0  0
  1  2  1  0
  2  3  1  0
  3  4  1  0
  4  5  2  0
  4  6  1  0
  6  7  1  0
  7  8  1  0
  8  9  2  0
  9 10  1  0
 10 11  2  0
 11 12  1  0
 12 13  2  0
 13 14  1  0
 13  8  1  0
  1 15  1  0
  1 16  1  0
  1 17  1  0
  2 18  1  0
  2 19  1  0
  6 20  1  0
  6 21  1  0
  7 22  1  0
  7 23  1  0
  9 24  1  0
 10 25  1  0
 11 26  1  0
 12 27  1  0
M  RAD  1  14   3
M  END
$$$$
