
     RDKit          3D

 27 27  0  0  0  0  0  0  0  0999 V2000
    2.5760    0.7815    1.6949 C   0  0  0  0  0  0  0  0  0  0  0  0
    2.3317   -0.6167    1.1510 C   0  0  0  0  0  0  0  0  0  0  0  0
    1.5889   -0.5305   -0.0594 O   0  0  0  0  0  0  0  0  0  0  0  0
    1.1479   -1.6577   -0.7578 C   0  0  0  0  0  0  0  0  0  0  0  0
    1.4424   -2.8183   -0.3613 O   0  0  0  0  0  0  0  0  0  0  0  0
    0.2615   -1.4788   -1.9516 C   0  0  0  0  0  0  0  0  0  0  0  0
   -1.2142   -1.3732   -1.5439 C   0  0  0  0  0  0  0  0  0  0  0  0
   -1.4818   -0.1397   -0.7105 C   0  0  0  0  0  0  0  0  0  0  0  0
   -1.5100   -0.2428    0.6920 C   0  0  0  0  0  0  0  0  0  0  0  0
   -1.7024    0.8933    1.4820 C   0  0  0  0  0  0  0  0  0  0  0  0
   -1.8675    2.1431    0.8823 C   0  0  0  0  0  0  0  0  0  0  0  0
   -1.8386    2.2604   -0.5093 C   0  0  0  0  0  0  0  0  0  0  0  0
   -1.6431    1.1281   -1.3093 C   0  0  0  0  0  0  0  0  0  0  0  0
   -1.6050    1.2766   -2.7270 N   0  0  0  0  0  1  0  0  0  0  0  0
    3.1540    1.3793    0.9588 H   0  0  0  0  0  0  0  0  0  0  0  0
    3.1514    0.7203    2.6426 H   0  0  0  0  0  0  0  0  0  0  0  0
    1.6059    1.2854    1.8927 H   0  0  0  0  0  0  0  0  0  0  0  0
    3.3059   -1.1161    0.9591 H   0  0  0  0  0  0  0  0  0  0  0  0
    1.7595   -1.2046    1.9014 H   0  0  0  0  0  0  0  0  0  0  0  0
    0.5704   -0.5672   -2.5069 H   0  0  0  0  0  0  0  0  0  0  0  0
    0.3871   -2.3456   -2.6360 H   0  0  0  0  0  0  0  0  0  0  0  0
   -1.5122   -2.2900   -0.9885 H   0  0  0  0  0  0  0  0  0  0  0  0
   -1.8415   -1.3460   -2.4608 H   0  0  0  0  0  0  0  0  0  0  0  0
   -1.3696   -1.2022    1.1745 H   0  0  0  0  0  0  0  0  0  0  0  0
   -1.7183    0.8052    2.5607 H   0  0  0  0  0  0  0  0  0  0  0  0
   -2.0149    3.0221    1.4963 H   0  0  0  0  0  0  0  0  0  0  0  0
   -1.9636    3.2341   -0.9663 H   0  0  0  0  0  0  0  0  0  0  0  0
  1  2  1  0
  2  3  1  0
  3  4  1  0
  4  5  2  0
  4  6  1  0
  6  7  1  0
  7  8  1  0
  8  9  2  0
  9 10  1  0
 10 11  2  0
 11 12  1  0
 12 13  2  0
 13 14  1  0
 13  8  1  0
  1 15  1  0
  1 16  1  0
  1 17  1  0
  2 18  1  0
  2 19  1  0
  6 20  1  0
  6 21  1  0
  7 22  1  0
  7 23  1  0
  9 24  1  0
 10 25  1  0
 11 26  1  0
 12 27  1  0
M  RAD  1  14   3
M  END
$$$$
