
     RDKit          3D

 27 27  0  0  0  0  0  0  0  0999 V2000
    4.1401    0.9774   -0.2161 C   0  0  0  0  0  0  0  0  0  0  0  0
    3.1017    0.1621   -0.9778 C   0  0  0  0  0  0  0  0  0  0  0  0
    2.2552   -0.5459   -0.0746 O   0  0  0  0  0  0  0  0  0  0  0  0
    1.2308    0.0636    0.6583 C   0  0  0  0  0  0  0  0  0  0  0  0
    0.9804    1.2922    0.5203 O   0  0  0  0  0  0  0  0  0  0  0  0
    0.3898   -0.7676    1.5768 C   0  0  0  0  0  0  0  0  0  0  0  0
   -0.6397   -1.5991    0.8016 C   0  0  0  0  0  0  0  0  0  0  0  0
   -1.6745   -0.7265    0.1272 C   0  0  0  0  0  0  0  0  0  0  0  0
   -2.7474   -0.2241    0.8843 C   0  0  0  0  0  0  0  0  0  0  0  0
   -3.7023    0.6086    0.2949 C   0  0  0  0  0  0  0  0  0  0  0  0
   -3.5933    0.9537   -1.0533 C   0  0  0  0  0  0  0  0  0  0  0  0
   -2.5279    0.4690   -1.8154 C   0  0  0  0  0  0  0  0  0  0  0  0
   -1.5660   -0.3662   -1.2342 C   0  0  0  0  0  0  0  0  0  0  0  0
   -0.4845   -0.8388   -2.0346 N   0  0  0  0  0  1  0  0  0  0  0  0
    4.7346    0.3112    0.4442 H   0  0  0  0  0  0  0  0  0  0  0  0
    4.8241    1.4754   -0.9351 H   0  0  0  0  0  0  0  0  0  0  0  0
    3.6452    1.7554    0.4018 H   0  0  0  0  0  0  0  0  0  0  0  0
    3.6281   -0.5752   -1.6198 H   0  0  0  0  0  0  0  0  0  0  0  0
    2.4978    0.8235   -1.6367 H   0  0  0  0  0  0  0  0  0  0  0  0
    1.0560   -1.4546    2.1411 H   0  0  0  0  0  0  0  0  0  0  0  0
   -0.1250   -0.1174    2.3179 H   0  0  0  0  0  0  0  0  0  0  0  0
   -1.1508   -2.2825    1.5145 H   0  0  0  0  0  0  0  0  0  0  0  0
   -0.1223   -2.2519    0.0657 H   0  0  0  0  0  0  0  0  0  0  0  0
   -2.8421   -0.4763    1.9334 H   0  0  0  0  0  0  0  0  0  0  0  0
   -4.5260    0.9889    0.8851 H   0  0  0  0  0  0  0  0  0  0  0  0
   -4.3334    1.5998   -1.5076 H   0  0  0  0  0  0  0  0  0  0  0  0
   -2.4485    0.7453   -2.8594 H   0  0  0  0  0  0  0  0  0  0  0  0
  1  2  1  0
  2  3  1  0
  3  4  1  0
  4  5  2  0
  4  6  1  0
  6  7  1  0
  7  8  1  0
  8  9  2  0
  9 10  1  0
 10 11  2  0
 11 12  1  0
 12 13  2  0
 13 14  1  0
 13  8  1  0
  1 15  1  0
  1 16  1  0
  1 17  1  0
  2 18  1  0
  2 19  1  0
  6 20  1  0
  6 21  1  0
  7 22  1  0
  7 23  1  0
  9 24  1  0
 10 25  1  0
 11 26  1  0
 12 27  1  0
M  RAD  1  14   3
M  END
$$$$
