
     RDKit          3D

 27 27  0  0  0  0  0  0  0  0999 V2000
    2.7407    1.0260    1.2757 C   0  0  0  0  0  0  0  0  0  0  0  0
    2.3586   -0.4434    1.2045 C   0  0  0  0  0  0  0  0  0  0  0  0
    1.5385   -0.6644    0.0631 O   0  0  0  0  0  0  0  0  0  0  0  0
    0.9689   -1.9064   -0.2298 C   0  0  0  0  0  0  0  0  0  0  0  0
    1.2075   -2.9120    0.4932 O   0  0  0  0  0  0  0  0  0  0  0  0
    0.0138   -2.0214   -1.3776 C   0  0  0  0  0  0  0  0  0  0  0  0
   -1.4173   -1.6636   -0.9546 C   0  0  0  0  0  0  0  0  0  0  0  0
   -1.5353   -0.2157   -0.5337 C   0  0  0  0  0  0  0  0  0  0  0  0
   -1.4697    0.1174    0.8313 C   0  0  0  0  0  0  0  0  0  0  0  0
   -1.5230    1.4530    1.2378 C   0  0  0  0  0  0  0  0  0  0  0  0
   -1.6411    2.4695    0.2882 C   0  0  0  0  0  0  0  0  0  0  0  0
   -1.7042    2.1530   -1.0709 C   0  0  0  0  0  0  0  0  0  0  0  0
   -1.6484    0.8177   -1.4882 C   0  0  0  0  0  0  0  0  0  0  0  0
   -1.7020    0.5221   -2.8821 N   0  0  0  0  0  1  0  0  0  0  0  0
    1.8259    1.6516    1.3522 H   0  0  0  0  0  0  0  0  0  0  0  0
    3.3771    1.2056    2.1677 H   0  0  0  0  0  0  0  0  0  0  0  0
    3.3054    1.3157    0.3644 H   0  0  0  0  0  0  0  0  0  0  0  0
    3.2782   -1.0634    1.1320 H   0  0  0  0  0  0  0  0  0  0  0  0
    1.8013   -0.7199    2.1261 H   0  0  0  0  0  0  0  0  0  0  0  0
    0.0275   -3.0635   -1.7643 H   0  0  0  0  0  0  0  0  0  0  0  0
    0.3463   -1.3547   -2.2021 H   0  0  0  0  0  0  0  0  0  0  0  0
   -1.7393   -2.3363   -0.1290 H   0  0  0  0  0  0  0  0  0  0  0  0
   -2.1056   -1.8614   -1.8045 H   0  0  0  0  0  0  0  0  0  0  0  0
   -1.3638   -0.6574    1.5806 H   0  0  0  0  0  0  0  0  0  0  0  0
   -1.4674    1.7003    2.2900 H   0  0  0  0  0  0  0  0  0  0  0  0
   -1.6807    3.5036    0.6053 H   0  0  0  0  0  0  0  0  0  0  0  0
   -1.7919    2.9478   -1.8011 H   0  0  0  0  0  0  0  0  0  0  0  0
  1  2  1  0
  2  3  1  0
  3  4  1  0
  4  5  2  0
  4  6  1  0
  6  7  1  0
  7  8  1  0
  8  9  2  0
  9 10  1  0
 10 11  2  0
 11 12  1  0
 12 13  2  0
 13 14  1  0
 13  8  1  0
  1 15  1  0
  1 16  1  0
  1 17  1  0
  2 18  1  0
  2 19  1  0
  6 20  1  0
  6 21  1  0
  7 22  1  0
  7 23  1  0
  9 24  1  0
 10 25  1  0
 11 26  1  0
 12 27  1  0
M  RAD  1  14   3
M  END
$$$$
