
     RDKit          3D

 27 27  0  0  0  0  0  0  0  0999 V2000
    2.5106    1.4891   -1.1948 C   0  0  0  0  0  0  0  0  0  0  0  0
    2.3925    1.1709    0.2868 C   0  0  0  0  0  0  0  0  0  0  0  0
    1.6309   -0.0189    0.4562 O   0  0  0  0  0  0  0  0  0  0  0  0
    1.2898   -0.5259    1.7130 C   0  0  0  0  0  0  0  0  0  0  0  0
    1.6966    0.0351    2.7669 O   0  0  0  0  0  0  0  0  0  0  0  0
    0.3768   -1.7096    1.8016 C   0  0  0  0  0  0  0  0  0  0  0  0
   -1.0975   -1.2848    1.7693 C   0  0  0  0  0  0  0  0  0  0  0  0
   -1.4702   -0.6424    0.4517 C   0  0  0  0  0  0  0  0  0  0  0  0
   -1.4725    0.7597    0.3397 C   0  0  0  0  0  0  0  0  0  0  0  0
   -1.7616    1.3721   -0.8823 C   0  0  0  0  0  0  0  0  0  0  0  0
   -2.0503    0.5935   -2.0045 C   0  0  0  0  0  0  0  0  0  0  0  0
   -2.0486   -0.8000   -1.9081 C   0  0  0  0  0  0  0  0  0  0  0  0
   -1.7568   -1.4230   -0.6886 C   0  0  0  0  0  0  0  0  0  0  0  0
   -1.7492   -2.8473   -0.6198 N   0  0  0  0  0  1  0  0  0  0  0  0
    3.0213    0.6558   -1.7222 H   0  0  0  0  0  0  0  0  0  0  0  0
    1.4997    1.6327   -1.6326 H   0  0  0  0  0  0  0  0  0  0  0  0
    3.1000    2.4198   -1.3331 H   0  0  0  0  0  0  0  0  0  0  0  0
    1.8867    2.0167    0.8017 H   0  0  0  0  0  0  0  0  0  0  0  0
    3.4070    1.0323    0.7190 H   0  0  0  0  0  0  0  0  0  0  0  0
    0.5755   -2.2570    2.7484 H   0  0  0  0  0  0  0  0  0  0  0  0
    0.5923   -2.4051    0.9621 H   0  0  0  0  0  0  0  0  0  0  0  0
   -1.3016   -0.5888    2.6129 H   0  0  0  0  0  0  0  0  0  0  0  0
   -1.7351   -2.1787    1.9410 H   0  0  0  0  0  0  0  0  0  0  0  0
   -1.2369    1.3789    1.1965 H   0  0  0  0  0  0  0  0  0  0  0  0
   -1.7568    2.4516   -0.9603 H   0  0  0  0  0  0  0  0  0  0  0  0
   -2.2726    1.0700   -2.9505 H   0  0  0  0  0  0  0  0  0  0  0  0
   -2.2698   -1.3966   -2.7843 H   0  0  0  0  0  0  0  0  0  0  0  0
  1  2  1  0
  2  3  1  0
  3  4  1  0
  4  5  2  0
  4  6  1  0
  6  7  1  0
  7  8  1  0
  8  9  2  0
  9 10  1  0
 10 11  2  0
 11 12  1  0
 12 13  2  0
 13 14  1  0
 13  8  1  0
  1 15  1  0
  1 16  1  0
  1 17  1  0
  2 18  1  0
  2 19  1  0
  6 20  1  0
  6 21  1  0
  7 22  1  0
  7 23  1  0
  9 24  1  0
 10 25  1  0
 11 26  1  0
 12 27  1  0
M  RAD  1  14   3
M  END
$$$$
