
     RDKit          3D

 31 32  0  0  0  0  0  0  0  0999 V2000
    1.0290   -3.5674   -0.5719 N   0  0  0  0  0  1  0  0  0  0  0  0
    1.4324   -2.2747   -0.1252 C   0  0  0  0  0  0  0  0  0  0  0  0
    2.2895   -2.1701    0.9743 C   0  0  0  0  0  0  0  0  0  0  0  0
    2.6852   -0.9166    1.4452 C   0  0  0  0  0  0  0  0  0  0  0  0
    2.2129    0.2550    0.8313 C   0  0  0  0  0  0  0  0  0  0  0  0
    2.6559    1.6120    1.3179 C   0  0  0  0  0  0  0  0  0  0  0  0
    2.9907    1.5708    2.6604 F   0  0  0  0  0  0  0  0  0  0  0  0
    1.6409    2.5390    1.1543 F   0  0  0  0  0  0  0  0  0  0  0  0
    3.7593    2.0181    0.5912 F   0  0  0  0  0  0  0  0  0  0  0  0
    1.3815    0.1472   -0.2960 C   0  0  0  0  0  0  0  0  0  0  0  0
    0.9807   -1.1109   -0.7787 C   0  0  0  0  0  0  0  0  0  0  0  0
    0.0197   -1.1881   -1.9433 C   0  0  0  0  0  0  0  0  0  0  0  0
   -1.4351   -1.3304   -1.4730 C   0  0  0  0  0  0  0  0  0  0  0  0
   -1.8911   -0.1225   -0.6939 C   0  0  0  0  0  0  0  0  0  0  0  0
   -1.8585   -0.1296    0.7112 C   0  0  0  0  0  0  0  0  0  0  0  0
   -2.2263    1.0119    1.4298 C   0  0  0  0  0  0  0  0  0  0  0  0
   -2.6256    2.1674    0.7527 C   0  0  0  0  0  0  0  0  0  0  0  0
   -2.6552    2.1841   -0.6445 C   0  0  0  0  0  0  0  0  0  0  0  0
   -2.2860    1.0454   -1.3672 C   0  0  0  0  0  0  0  0  0  0  0  0
    2.6496   -3.0639    1.4685 H   0  0  0  0  0  0  0  0  0  0  0  0
    3.3572   -0.8645    2.2925 H   0  0  0  0  0  0  0  0  0  0  0  0
    1.0309    1.0445   -0.7921 H   0  0  0  0  0  0  0  0  0  0  0  0
    0.2786   -2.0562   -2.5870 H   0  0  0  0  0  0  0  0  0  0  0  0
    0.1166   -0.2855   -2.5862 H   0  0  0  0  0  0  0  0  0  0  0  0
   -1.5444   -2.2520   -0.8602 H   0  0  0  0  0  0  0  0  0  0  0  0
   -2.0886   -1.4596   -2.3630 H   0  0  0  0  0  0  0  0  0  0  0  0
   -1.5359   -1.0130    1.2482 H   0  0  0  0  0  0  0  0  0  0  0  0
   -2.1965    1.0024    2.5116 H   0  0  0  0  0  0  0  0  0  0  0  0
   -2.9081    3.0508    1.3105 H   0  0  0  0  0  0  0  0  0  0  0  0
   -2.9591    3.0814   -1.1678 H   0  0  0  0  0  0  0  0  0  0  0  0
   -2.3001    1.0751   -2.4497 H   0  0  0  0  0  0  0  0  0  0  0  0
  1  2  1  0
  2  3  1  0
  3  4  2  0
  4  5  1  0
  5  6  1  0
  6  7  1  0
  6  8  1  0
  6  9  1  0
  5 10  2  0
 10 11  1  0
 11 12  1  0
 12 13  1  0
 13 14  1  0
 14 15  2  0
 15 16  1  0
 16 17  2  0
 17 18  1  0
 18 19  2  0
 11  2  2  0
 19 14  1  0
  3 20  1  0
  4 21  1  0
 10 22  1  0
 12 23  1  0
 12 24  1  0
 13 25  1  0
 13 26  1  0
 15 27  1  0
 16 28  1  0
 17 29  1  0
 18 30  1  0
 19 31  1  0
M  RAD  1   1   3
M  END
$$$$
