
     RDKit          3D

 31 32  0  0  0  0  0  0  0  0999 V2000
    1.2026   -3.1204   -1.7139 N   0  0  0  0  0  1  0  0  0  0  0  0
    1.5718   -1.9589   -0.9737 C   0  0  0  0  0  0  0  0  0  0  0  0
    2.5623   -2.0621    0.0073 C   0  0  0  0  0  0  0  0  0  0  0  0
    2.9288   -0.9459    0.7619 C   0  0  0  0  0  0  0  0  0  0  0  0
    2.3215    0.2992    0.5310 C   0  0  0  0  0  0  0  0  0  0  0  0
    2.6617    1.4910    1.3900 C   0  0  0  0  0  0  0  0  0  0  0  0
    2.5598    2.6611    0.6575 F   0  0  0  0  0  0  0  0  0  0  0  0
    3.9543    1.3963    1.8761 F   0  0  0  0  0  0  0  0  0  0  0  0
    1.7827    1.5485    2.4554 F   0  0  0  0  0  0  0  0  0  0  0  0
    1.3139    0.3968   -0.4430 C   0  0  0  0  0  0  0  0  0  0  0  0
    0.9395   -0.7216   -1.2082 C   0  0  0  0  0  0  0  0  0  0  0  0
   -0.1894   -0.5947   -2.2058 C   0  0  0  0  0  0  0  0  0  0  0  0
   -1.5328   -1.0348   -1.6056 C   0  0  0  0  0  0  0  0  0  0  0  0
   -1.9466   -0.1526   -0.4548 C   0  0  0  0  0  0  0  0  0  0  0  0
   -2.5383    1.0977   -0.6994 C   0  0  0  0  0  0  0  0  0  0  0  0
   -2.8702    1.9401    0.3662 C   0  0  0  0  0  0  0  0  0  0  0  0
   -2.6073    1.5444    1.6805 C   0  0  0  0  0  0  0  0  0  0  0  0
   -2.0115    0.3055    1.9317 C   0  0  0  0  0  0  0  0  0  0  0  0
   -1.6804   -0.5411    0.8695 C   0  0  0  0  0  0  0  0  0  0  0  0
    3.0418   -3.0146    0.1961 H   0  0  0  0  0  0  0  0  0  0  0  0
    3.6819   -1.0592    1.5315 H   0  0  0  0  0  0  0  0  0  0  0  0
    0.8030    1.3405   -0.5939 H   0  0  0  0  0  0  0  0  0  0  0  0
    0.0287   -1.2169   -3.1003 H   0  0  0  0  0  0  0  0  0  0  0  0
   -0.2696    0.4537   -2.5688 H   0  0  0  0  0  0  0  0  0  0  0  0
   -2.3109   -0.9913   -2.3984 H   0  0  0  0  0  0  0  0  0  0  0  0
   -1.4696   -2.0957   -1.2783 H   0  0  0  0  0  0  0  0  0  0  0  0
   -2.7343    1.4215   -1.7141 H   0  0  0  0  0  0  0  0  0  0  0  0
   -3.3262    2.9024    0.1726 H   0  0  0  0  0  0  0  0  0  0  0  0
   -2.8613    2.1993    2.5038 H   0  0  0  0  0  0  0  0  0  0  0  0
   -1.8013    0.0032    2.9495 H   0  0  0  0  0  0  0  0  0  0  0  0
   -1.2046   -1.4915    1.0775 H   0  0  0  0  0  0  0  0  0  0  0  0
  1  2  1  0
  2  3  1  0
  3  4  2  0
  4  5  1  0
  5  6  1  0
  6  7  1  0
  6  8  1  0
  6  9  1  0
  5 10  2  0
 10 11  1  0
 11 12  1  0
 12 13  1  0
 13 14  1  0
 14 15  2  0
 15 16  1  0
 16 17  2  0
 17 18  1  0
 18 19  2  0
 11  2  2  0
 19 14  1  0
  3 20  1  0
  4 21  1  0
 10 22  1  0
 12 23  1  0
 12 24  1  0
 13 25  1  0
 13 26  1  0
 15 27  1  0
 16 28  1  0
 17 29  1  0
 18 30  1  0
 19 31  1  0
M  RAD  1   1   3
M  END
$$$$
