
     RDKit          3D

 31 32  0  0  0  0  0  0  0  0999 V2000
    1.5879   -3.0331   -1.4836 N   0  0  0  0  0  1  0  0  0  0  0  0
    1.8054   -1.7661   -0.8664 C   0  0  0  0  0  0  0  0  0  0  0  0
    2.8369   -0.9474   -1.3355 C   0  0  0  0  0  0  0  0  0  0  0  0
    3.0600    0.3064   -0.7627 C   0  0  0  0  0  0  0  0  0  0  0  0
    2.2397    0.7679    0.2796 C   0  0  0  0  0  0  0  0  0  0  0  0
    2.4903    2.1098    0.9205 C   0  0  0  0  0  0  0  0  0  0  0  0
    3.3077    1.9423    2.0226 F   0  0  0  0  0  0  0  0  0  0  0  0
    3.1041    2.9755    0.0316 F   0  0  0  0  0  0  0  0  0  0  0  0
    1.2968    2.6821    1.3261 F   0  0  0  0  0  0  0  0  0  0  0  0
    1.2274   -0.0714    0.7740 C   0  0  0  0  0  0  0  0  0  0  0  0
    0.9979   -1.3365    0.2055 C   0  0  0  0  0  0  0  0  0  0  0  0
   -0.1524   -2.1792    0.7079 C   0  0  0  0  0  0  0  0  0  0  0  0
   -1.4139   -1.9890   -0.1468 C   0  0  0  0  0  0  0  0  0  0  0  0
   -1.9299   -0.5741   -0.0741 C   0  0  0  0  0  0  0  0  0  0  0  0
   -2.6882   -0.1538    1.0312 C   0  0  0  0  0  0  0  0  0  0  0  0
   -3.1192    1.1730    1.1260 C   0  0  0  0  0  0  0  0  0  0  0  0
   -2.7904    2.0898    0.1236 C   0  0  0  0  0  0  0  0  0  0  0  0
   -2.0297    1.6815   -0.9752 C   0  0  0  0  0  0  0  0  0  0  0  0
   -1.5987    0.3553   -1.0752 C   0  0  0  0  0  0  0  0  0  0  0  0
    3.4680   -1.2824   -2.1493 H   0  0  0  0  0  0  0  0  0  0  0  0
    3.8718    0.9161   -1.1388 H   0  0  0  0  0  0  0  0  0  0  0  0
    0.6043    0.2650    1.5943 H   0  0  0  0  0  0  0  0  0  0  0  0
   -0.3802   -1.9314    1.7682 H   0  0  0  0  0  0  0  0  0  0  0  0
    0.1349   -3.2526    0.6954 H   0  0  0  0  0  0  0  0  0  0  0  0
   -1.2005   -2.2711   -1.2012 H   0  0  0  0  0  0  0  0  0  0  0  0
   -2.2013   -2.6846    0.2166 H   0  0  0  0  0  0  0  0  0  0  0  0
   -2.9378   -0.8515    1.8210 H   0  0  0  0  0  0  0  0  0  0  0  0
   -3.7034    1.4919    1.9794 H   0  0  0  0  0  0  0  0  0  0  0  0
   -3.1217    3.1173    0.2005 H   0  0  0  0  0  0  0  0  0  0  0  0
   -1.7694    2.3940   -1.7472 H   0  0  0  0  0  0  0  0  0  0  0  0
   -0.9964    0.0562   -1.9241 H   0  0  0  0  0  0  0  0  0  0  0  0
  1  2  1  0
  2  3  1  0
  3  4  2  0
  4  5  1  0
  5  6  1  0
  6  7  1  0
  6  8  1  0
  6  9  1  0
  5 10  2  0
 10 11  1  0
 11 12  1  0
 12 13  1  0
 13 14  1  0
 14 15  2  0
 15 16  1  0
 16 17  2  0
 17 18  1  0
 18 19  2  0
 11  2  2  0
 19 14  1  0
  3 20  1  0
  4 21  1  0
 10 22  1  0
 12 23  1  0
 12 24  1  0
 13 25  1  0
 13 26  1  0
 15 27  1  0
 16 28  1  0
 17 29  1  0
 18 30  1  0
 19 31  1  0
M  RAD  1   1   3
M  END
$$$$
