
     RDKit          3D

 31 32  0  0  0  0  0  0  0  0999 V2000
    1.9382   -3.2164   -0.0235 N   0  0  0  0  0  1  0  0  0  0  0  0
    2.0060   -1.7932    0.0338 C   0  0  0  0  0  0  0  0  0  0  0  0
    3.0085   -1.1293   -0.6794 C   0  0  0  0  0  0  0  0  0  0  0  0
    3.0868    0.2647   -0.6570 C   0  0  0  0  0  0  0  0  0  0  0  0
    2.1487    1.0178    0.0678 C   0  0  0  0  0  0  0  0  0  0  0  0
    2.2418    2.5222    0.1178 C   0  0  0  0  0  0  0  0  0  0  0  0
    2.9735    2.8962    1.2293 F   0  0  0  0  0  0  0  0  0  0  0  0
    0.9784    3.0822    0.1992 F   0  0  0  0  0  0  0  0  0  0  0  0
    2.8612    3.0173   -1.0169 F   0  0  0  0  0  0  0  0  0  0  0  0
    1.1648    0.3473    0.8134 C   0  0  0  0  0  0  0  0  0  0  0  0
    1.0806   -1.0560    0.7991 C   0  0  0  0  0  0  0  0  0  0  0  0
   -0.0408   -1.7407    1.5469 C   0  0  0  0  0  0  0  0  0  0  0  0
   -1.2363   -2.0408    0.6311 C   0  0  0  0  0  0  0  0  0  0  0  0
   -1.8624   -0.7772    0.0974 C   0  0  0  0  0  0  0  0  0  0  0  0
   -1.5191   -0.2983   -1.1787 C   0  0  0  0  0  0  0  0  0  0  0  0
   -2.0563    0.9043   -1.6475 C   0  0  0  0  0  0  0  0  0  0  0  0
   -2.9359    1.6378   -0.8467 C   0  0  0  0  0  0  0  0  0  0  0  0
   -3.2778    1.1711    0.4255 C   0  0  0  0  0  0  0  0  0  0  0  0
   -2.7410   -0.0300    0.8993 C   0  0  0  0  0  0  0  0  0  0  0  0
    3.7297   -1.6951   -1.2560 H   0  0  0  0  0  0  0  0  0  0  0  0
    3.8789    0.7530   -1.2105 H   0  0  0  0  0  0  0  0  0  0  0  0
    0.4508    0.9179    1.3957 H   0  0  0  0  0  0  0  0  0  0  0  0
    0.3270   -2.6930    1.9859 H   0  0  0  0  0  0  0  0  0  0  0  0
   -0.3755   -1.1136    2.4026 H   0  0  0  0  0  0  0  0  0  0  0  0
   -0.9138   -2.6983   -0.2058 H   0  0  0  0  0  0  0  0  0  0  0  0
   -1.9966   -2.6098    1.2092 H   0  0  0  0  0  0  0  0  0  0  0  0
   -0.8263   -0.8487   -1.8033 H   0  0  0  0  0  0  0  0  0  0  0  0
   -1.7864    1.2703   -2.6296 H   0  0  0  0  0  0  0  0  0  0  0  0
   -3.3493    2.5696   -1.2104 H   0  0  0  0  0  0  0  0  0  0  0  0
   -3.9545    1.7431    1.0470 H   0  0  0  0  0  0  0  0  0  0  0  0
   -3.0028   -0.3743    1.8922 H   0  0  0  0  0  0  0  0  0  0  0  0
  1  2  1  0
  2  3  1  0
  3  4  2  0
  4  5  1  0
  5  6  1  0
  6  7  1  0
  6  8  1  0
  6  9  1  0
  5 10  2  0
 10 11  1  0
 11 12  1  0
 12 13  1  0
 13 14  1  0
 14 15  2  0
 15 16  1  0
 16 17  2  0
 17 18  1  0
 18 19  2  0
 11  2  2  0
 19 14  1  0
  3 20  1  0
  4 21  1  0
 10 22  1  0
 12 23  1  0
 12 24  1  0
 13 25  1  0
 13 26  1  0
 15 27  1  0
 16 28  1  0
 17 29  1  0
 18 30  1  0
 19 31  1  0
M  RAD  1   1   3
M  END
$$$$
