
     RDKit          3D

 31 32  0  0  0  0  0  0  0  0999 V2000
   -1.0079    3.5526   -0.8048 N   0  0  0  0  0  1  0  0  0  0  0  0
   -1.4497    2.2063   -0.6445 C   0  0  0  0  0  0  0  0  0  0  0  0
   -2.4463    1.7108   -1.4903 C   0  0  0  0  0  0  0  0  0  0  0  0
   -2.8831    0.3900   -1.3699 C   0  0  0  0  0  0  0  0  0  0  0  0
   -2.3413   -0.4512   -0.3844 C   0  0  0  0  0  0  0  0  0  0  0  0
   -2.7573   -1.8979   -0.2957 C   0  0  0  0  0  0  0  0  0  0  0  0
   -4.0494   -2.0695   -0.7619 F   0  0  0  0  0  0  0  0  0  0  0  0
   -2.7093   -2.3364    1.0163 F   0  0  0  0  0  0  0  0  0  0  0  0
   -1.8973   -2.6653   -1.0590 F   0  0  0  0  0  0  0  0  0  0  0  0
   -1.3274    0.0434    0.4527 C   0  0  0  0  0  0  0  0  0  0  0  0
   -0.8825    1.3722    0.3393 C   0  0  0  0  0  0  0  0  0  0  0  0
    0.2513    1.8532    1.2163 C   0  0  0  0  0  0  0  0  0  0  0  0
    1.6083    1.7414    0.5060 C   0  0  0  0  0  0  0  0  0  0  0  0
    1.9580    0.3089    0.1909 C   0  0  0  0  0  0  0  0  0  0  0  0
    2.4841   -0.5269    1.1899 C   0  0  0  0  0  0  0  0  0  0  0  0
    2.7554   -1.8705    0.9132 C   0  0  0  0  0  0  0  0  0  0  0  0
    2.4965   -2.3901   -0.3581 C   0  0  0  0  0  0  0  0  0  0  0  0
    1.9656   -1.5672   -1.3551 C   0  0  0  0  0  0  0  0  0  0  0  0
    1.6954   -0.2227   -1.0835 C   0  0  0  0  0  0  0  0  0  0  0  0
   -2.8758    2.3473   -2.2539 H   0  0  0  0  0  0  0  0  0  0  0  0
   -3.6393    0.0249   -2.0534 H   0  0  0  0  0  0  0  0  0  0  0  0
   -0.8666   -0.6121    1.1823 H   0  0  0  0  0  0  0  0  0  0  0  0
    0.0795    2.9126    1.5042 H   0  0  0  0  0  0  0  0  0  0  0  0
    0.2793    1.2740    2.1656 H   0  0  0  0  0  0  0  0  0  0  0  0
    1.5985    2.3521   -0.4233 H   0  0  0  0  0  0  0  0  0  0  0  0
    2.3936    2.1737    1.1636 H   0  0  0  0  0  0  0  0  0  0  0  0
    2.6760   -0.1394    2.1828 H   0  0  0  0  0  0  0  0  0  0  0  0
    3.1609   -2.5103    1.6861 H   0  0  0  0  0  0  0  0  0  0  0  0
    2.7034   -3.4312   -0.5695 H   0  0  0  0  0  0  0  0  0  0  0  0
    1.7583   -1.9725   -2.3370 H   0  0  0  0  0  0  0  0  0  0  0  0
    1.2692    0.3999   -1.8606 H   0  0  0  0  0  0  0  0  0  0  0  0
  1  2  1  0
  2  3  1  0
  3  4  2  0
  4  5  1  0
  5  6  1  0
  6  7  1  0
  6  8  1  0
  6  9  1  0
  5 10  2  0
 10 11  1  0
 11 12  1  0
 12 13  1  0
 13 14  1  0
 14 15  2  0
 15 16  1  0
 16 17  2  0
 17 18  1  0
 18 19  2  0
 11  2  2  0
 19 14  1  0
  3 20  1  0
  4 21  1  0
 10 22  1  0
 12 23  1  0
 12 24  1  0
 13 25  1  0
 13 26  1  0
 15 27  1  0
 16 28  1  0
 17 29  1  0
 18 30  1  0
 19 31  1  0
M  RAD  1   1   3
M  END
$$$$
