
     RDKit          3D

 31 32  0  0  0  0  0  0  0  0999 V2000
    0.9280   -2.9836    0.0063 N   0  0  0  0  0  1  0  0  0  0  0  0
    1.8065   -1.8602   -0.0029 C   0  0  0  0  0  0  0  0  0  0  0  0
    3.1541   -2.0518   -0.3214 C   0  0  0  0  0  0  0  0  0  0  0  0
    4.0336   -0.9679   -0.3532 C   0  0  0  0  0  0  0  0  0  0  0  0
    3.5709    0.3315   -0.0891 C   0  0  0  0  0  0  0  0  0  0  0  0
    4.5271    1.4980   -0.0850 C   0  0  0  0  0  0  0  0  0  0  0  0
    3.8789    2.6609   -0.4642 F   0  0  0  0  0  0  0  0  0  0  0  0
    5.0388    1.6622    1.1885 F   0  0  0  0  0  0  0  0  0  0  0  0
    5.5722    1.2795   -0.9660 F   0  0  0  0  0  0  0  0  0  0  0  0
    2.2218    0.5184    0.2590 C   0  0  0  0  0  0  0  0  0  0  0  0
    1.3333   -0.5696    0.3087 C   0  0  0  0  0  0  0  0  0  0  0  0
   -0.1191   -0.3272    0.6401 C   0  0  0  0  0  0  0  0  0  0  0  0
   -0.9315   -0.0938   -0.6371 C   0  0  0  0  0  0  0  0  0  0  0  0
   -2.3800    0.1461   -0.3064 C   0  0  0  0  0  0  0  0  0  0  0  0
   -2.8416    1.4472   -0.0457 C   0  0  0  0  0  0  0  0  0  0  0  0
   -4.1807    1.6643    0.2938 C   0  0  0  0  0  0  0  0  0  0  0  0
   -5.0642    0.5851    0.3848 C   0  0  0  0  0  0  0  0  0  0  0  0
   -4.6091   -0.7136    0.1406 C   0  0  0  0  0  0  0  0  0  0  0  0
   -3.2708   -0.9351   -0.1992 C   0  0  0  0  0  0  0  0  0  0  0  0
    3.5231   -3.0453   -0.5443 H   0  0  0  0  0  0  0  0  0  0  0  0
    5.0756   -1.1460   -0.5877 H   0  0  0  0  0  0  0  0  0  0  0  0
    1.8592    1.5124    0.4928 H   0  0  0  0  0  0  0  0  0  0  0  0
   -0.2118    0.5592    1.3062 H   0  0  0  0  0  0  0  0  0  0  0  0
   -0.5339   -1.1936    1.2001 H   0  0  0  0  0  0  0  0  0  0  0  0
   -0.8410   -0.9768   -1.3076 H   0  0  0  0  0  0  0  0  0  0  0  0
   -0.5209    0.7817   -1.1872 H   0  0  0  0  0  0  0  0  0  0  0  0
   -2.1649    2.2909   -0.1037 H   0  0  0  0  0  0  0  0  0  0  0  0
   -4.5327    2.6688    0.4897 H   0  0  0  0  0  0  0  0  0  0  0  0
   -6.1000    0.7547    0.6489 H   0  0  0  0  0  0  0  0  0  0  0  0
   -5.2926   -1.5493    0.2180 H   0  0  0  0  0  0  0  0  0  0  0  0
   -2.9283   -1.9472   -0.3767 H   0  0  0  0  0  0  0  0  0  0  0  0
  1  2  1  0
  2  3  1  0
  3  4  2  0
  4  5  1  0
  5  6  1  0
  6  7  1  0
  6  8  1  0
  6  9  1  0
  5 10  2  0
 10 11  1  0
 11 12  1  0
 12 13  1  0
 13 14  1  0
 14 15  2  0
 15 16  1  0
 16 17  2  0
 17 18  1  0
 18 19  2  0
 11  2  2  0
 19 14  1  0
  3 20  1  0
  4 21  1  0
 10 22  1  0
 12 23  1  0
 12 24  1  0
 13 25  1  0
 13 26  1  0
 15 27  1  0
 16 28  1  0
 17 29  1  0
 18 30  1  0
 19 31  1  0
M  RAD  1   1   3
M  END
$$$$
