
     RDKit          3D

 31 32  0  0  0  0  0  0  0  0999 V2000
    1.0935   -2.8162   -0.8560 N   0  0  0  0  0  1  0  0  0  0  0  0
    1.8999   -1.7309   -0.4026 C   0  0  0  0  0  0  0  0  0  0  0  0
    3.2844   -1.7875   -0.5868 C   0  0  0  0  0  0  0  0  0  0  0  0
    4.0968   -0.7324   -0.1667 C   0  0  0  0  0  0  0  0  0  0  0  0
    3.5311    0.4092    0.4243 C   0  0  0  0  0  0  0  0  0  0  0  0
    4.4104    1.5328    0.9135 C   0  0  0  0  0  0  0  0  0  0  0  0
    4.7586    1.2974    2.2304 F   0  0  0  0  0  0  0  0  0  0  0  0
    5.5627    1.6221    0.1517 F   0  0  0  0  0  0  0  0  0  0  0  0
    3.7444    2.7435    0.8325 F   0  0  0  0  0  0  0  0  0  0  0  0
    2.1419    0.4520    0.6346 C   0  0  0  0  0  0  0  0  0  0  0  0
    1.3187   -0.6128    0.2290 C   0  0  0  0  0  0  0  0  0  0  0  0
   -0.1742   -0.5140    0.4274 C   0  0  0  0  0  0  0  0  0  0  0  0
   -0.8430    0.0944   -0.8089 C   0  0  0  0  0  0  0  0  0  0  0  0
   -2.3318    0.1908   -0.6115 C   0  0  0  0  0  0  0  0  0  0  0  0
   -2.8963    1.3347   -0.0224 C   0  0  0  0  0  0  0  0  0  0  0  0
   -4.2765    1.4087    0.1903 C   0  0  0  0  0  0  0  0  0  0  0  0
   -5.0998    0.3396   -0.1737 C   0  0  0  0  0  0  0  0  0  0  0  0
   -4.5439   -0.8073   -0.7474 C   0  0  0  0  0  0  0  0  0  0  0  0
   -3.1642   -0.8855   -0.9619 C   0  0  0  0  0  0  0  0  0  0  0  0
    3.7345   -2.6533   -1.0564 H   0  0  0  0  0  0  0  0  0  0  0  0
    5.1677   -0.8082   -0.3074 H   0  0  0  0  0  0  0  0  0  0  0  0
    1.6968    1.3150    1.1155 H   0  0  0  0  0  0  0  0  0  0  0  0
   -0.6007   -1.5202    0.6324 H   0  0  0  0  0  0  0  0  0  0  0  0
   -0.3962    0.1158    1.3174 H   0  0  0  0  0  0  0  0  0  0  0  0
   -0.4225    1.1061   -1.0022 H   0  0  0  0  0  0  0  0  0  0  0  0
   -0.6226   -0.5307   -1.7023 H   0  0  0  0  0  0  0  0  0  0  0  0
   -2.2681    2.1660    0.2728 H   0  0  0  0  0  0  0  0  0  0  0  0
   -4.7073    2.2936    0.6407 H   0  0  0  0  0  0  0  0  0  0  0  0
   -6.1677    0.3980   -0.0072 H   0  0  0  0  0  0  0  0  0  0  0  0
   -5.1817   -1.6373   -1.0227 H   0  0  0  0  0  0  0  0  0  0  0  0
   -2.7446   -1.7834   -1.3984 H   0  0  0  0  0  0  0  0  0  0  0  0
  1  2  1  0
  2  3  1  0
  3  4  2  0
  4  5  1  0
  5  6  1  0
  6  7  1  0
  6  8  1  0
  6  9  1  0
  5 10  2  0
 10 11  1  0
 11 12  1  0
 12 13  1  0
 13 14  1  0
 14 15  2  0
 15 16  1  0
 16 17  2  0
 17 18  1  0
 18 19  2  0
 11  2  2  0
 19 14  1  0
  3 20  1  0
  4 21  1  0
 10 22  1  0
 12 23  1  0
 12 24  1  0
 13 25  1  0
 13 26  1  0
 15 27  1  0
 16 28  1  0
 17 29  1  0
 18 30  1  0
 19 31  1  0
M  RAD  1   1   3
M  END
$$$$
