
     RDKit          3D

 31 32  0  0  0  0  0  0  0  0999 V2000
    1.8445   -2.8227   -1.6585 N   0  0  0  0  0  1  0  0  0  0  0  0
    1.9548   -1.5769   -0.9735 C   0  0  0  0  0  0  0  0  0  0  0  0
    2.9043   -0.6449   -1.4026 C   0  0  0  0  0  0  0  0  0  0  0  0
    3.0199    0.5914   -0.7639 C   0  0  0  0  0  0  0  0  0  0  0  0
    2.1978    0.9062    0.3303 C   0  0  0  0  0  0  0  0  0  0  0  0
    2.2689    2.2659    0.9786 C   0  0  0  0  0  0  0  0  0  0  0  0
    3.5341    2.8112    0.8444 F   0  0  0  0  0  0  0  0  0  0  0  0
    1.9783    2.1748    2.3288 F   0  0  0  0  0  0  0  0  0  0  0  0
    1.3504    3.1049    0.3756 F   0  0  0  0  0  0  0  0  0  0  0  0
    1.2324   -0.0246    0.7487 C   0  0  0  0  0  0  0  0  0  0  0  0
    1.1099   -1.2722    0.1123 C   0  0  0  0  0  0  0  0  0  0  0  0
    0.0210   -2.2254    0.5498 C   0  0  0  0  0  0  0  0  0  0  0  0
   -1.2389   -2.0886   -0.3177 C   0  0  0  0  0  0  0  0  0  0  0  0
   -1.8612   -0.7213   -0.1880 C   0  0  0  0  0  0  0  0  0  0  0  0
   -1.5828    0.2787   -1.1357 C   0  0  0  0  0  0  0  0  0  0  0  0
   -2.1134    1.5629   -0.9809 C   0  0  0  0  0  0  0  0  0  0  0  0
   -2.9220    1.8586    0.1198 C   0  0  0  0  0  0  0  0  0  0  0  0
   -3.1991    0.8712    1.0693 C   0  0  0  0  0  0  0  0  0  0  0  0
   -2.6683   -0.4138    0.9199 C   0  0  0  0  0  0  0  0  0  0  0  0
    3.5472   -0.8733   -2.2435 H   0  0  0  0  0  0  0  0  0  0  0  0
    3.7473    1.3040   -1.1317 H   0  0  0  0  0  0  0  0  0  0  0  0
    0.5587    0.2284    1.5589 H   0  0  0  0  0  0  0  0  0  0  0  0
    0.3910   -3.2714    0.4885 H   0  0  0  0  0  0  0  0  0  0  0  0
   -0.2411   -2.0507    1.6167 H   0  0  0  0  0  0  0  0  0  0  0  0
   -0.9896   -2.3025   -1.3801 H   0  0  0  0  0  0  0  0  0  0  0  0
   -1.9766   -2.8580   -0.0020 H   0  0  0  0  0  0  0  0  0  0  0  0
   -0.9447    0.0676   -1.9849 H   0  0  0  0  0  0  0  0  0  0  0  0
   -1.8932    2.3303   -1.7116 H   0  0  0  0  0  0  0  0  0  0  0  0
   -3.3305    2.8537    0.2391 H   0  0  0  0  0  0  0  0  0  0  0  0
   -3.8207    1.1031    1.9244 H   0  0  0  0  0  0  0  0  0  0  0  0
   -2.8787   -1.1665    1.6696 H   0  0  0  0  0  0  0  0  0  0  0  0
  1  2  1  0
  2  3  1  0
  3  4  2  0
  4  5  1  0
  5  6  1  0
  6  7  1  0
  6  8  1  0
  6  9  1  0
  5 10  2  0
 10 11  1  0
 11 12  1  0
 12 13  1  0
 13 14  1  0
 14 15  2  0
 15 16  1  0
 16 17  2  0
 17 18  1  0
 18 19  2  0
 11  2  2  0
 19 14  1  0
  3 20  1  0
  4 21  1  0
 10 22  1  0
 12 23  1  0
 12 24  1  0
 13 25  1  0
 13 26  1  0
 15 27  1  0
 16 28  1  0
 17 29  1  0
 18 30  1  0
 19 31  1  0
M  RAD  1   1   3
M  END
$$$$
