
     RDKit          3D

 28 29  0  0  0  0  0  0  0  0999 V2000
    2.7977   -1.6718    1.6018 N   0  0  0  0  0  1  0  0  0  0  0  0
    2.5274   -0.4952    0.8429 C   0  0  0  0  0  0  0  0  0  0  0  0
    3.1997    0.6912    1.1600 C   0  0  0  0  0  0  0  0  0  0  0  0
    2.9398    1.8612    0.4427 C   0  0  0  0  0  0  0  0  0  0  0  0
    2.0059    1.8522   -0.5951 C   0  0  0  0  0  0  0  0  0  0  0  0
    1.3315    0.6727   -0.9204 C   0  0  0  0  0  0  0  0  0  0  0  0
    1.5877   -0.5136   -0.2101 C   0  0  0  0  0  0  0  0  0  0  0  0
    0.8115   -1.7653   -0.5468 C   0  0  0  0  0  0  0  0  0  0  0  0
   -0.4153   -1.9421    0.3603 C   0  0  0  0  0  0  0  0  0  0  0  0
   -1.4440   -0.8556    0.1361 C   0  0  0  0  0  0  0  0  0  0  0  0
   -2.2842   -0.9409   -0.9885 C   0  0  0  0  0  0  0  0  0  0  0  0
   -3.2195    0.0615   -1.2546 C   0  0  0  0  0  0  0  0  0  0  0  0
   -3.3245    1.1633   -0.4053 C   0  0  0  0  0  0  0  0  0  0  0  0
   -2.4939    1.2660    0.7121 C   0  0  0  0  0  0  0  0  0  0  0  0
   -1.5524    0.2672    0.9905 C   0  0  0  0  0  0  0  0  0  0  0  0
   -0.5321    0.4694    2.4116 Cl  0  0  0  0  0  0  0  0  0  0  0  0
    3.9212    0.7082    1.9673 H   0  0  0  0  0  0  0  0  0  0  0  0
    3.4599    2.7765    0.6940 H   0  0  0  0  0  0  0  0  0  0  0  0
    1.8011    2.7612   -1.1456 H   0  0  0  0  0  0  0  0  0  0  0  0
    0.6009    0.6863   -1.7199 H   0  0  0  0  0  0  0  0  0  0  0  0
    1.4703   -2.6538   -0.4403 H   0  0  0  0  0  0  0  0  0  0  0  0
    0.4900   -1.7456   -1.6115 H   0  0  0  0  0  0  0  0  0  0  0  0
   -0.8790   -2.9272    0.1348 H   0  0  0  0  0  0  0  0  0  0  0  0
   -0.0985   -1.9939    1.4226 H   0  0  0  0  0  0  0  0  0  0  0  0
   -2.2100   -1.7845   -1.6638 H   0  0  0  0  0  0  0  0  0  0  0  0
   -3.8613   -0.0146   -2.1229 H   0  0  0  0  0  0  0  0  0  0  0  0
   -4.0487    1.9401   -0.6143 H   0  0  0  0  0  0  0  0  0  0  0  0
   -2.5813    2.1272    1.3625 H   0  0  0  0  0  0  0  0  0  0  0  0
  1  2  1  0
  2  3  2  0
  3  4  1  0
  4  5  2  0
  5  6  1  0
  6  7  2  0
  7  8  1  0
  8  9  1  0
  9 10  1  0
 10 11  2  0
 11 12  1  0
 12 13  2  0
 13 14  1  0
 14 15  2  0
 15 16  1  0
  7  2  1  0
 15 10  1  0
  3 17  1  0
  4 18  1  0
  5 19  1  0
  6 20  1  0
  8 21  1  0
  8 22  1  0
  9 23  1  0
  9 24  1  0
 11 25  1  0
 12 26  1  0
 13 27  1  0
 14 28  1  0
M  RAD  1   1   3
M  END
$$$$
