
     RDKit          3D

 28 29  0  0  0  0  0  0  0  0999 V2000
    2.6553   -2.4690    0.3592 N   0  0  0  0  0  1  0  0  0  0  0  0
    2.4917   -1.0652    0.1693 C   0  0  0  0  0  0  0  0  0  0  0  0
    3.3372   -0.3938   -0.7220 C   0  0  0  0  0  0  0  0  0  0  0  0
    3.1859    0.9778   -0.9385 C   0  0  0  0  0  0  0  0  0  0  0  0
    2.1884    1.6859   -0.2658 C   0  0  0  0  0  0  0  0  0  0  0  0
    1.3412    1.0252    0.6273 C   0  0  0  0  0  0  0  0  0  0  0  0
    1.4861   -0.3543    0.8587 C   0  0  0  0  0  0  0  0  0  0  0  0
    0.5277   -1.0573    1.7915 C   0  0  0  0  0  0  0  0  0  0  0  0
   -0.6446   -1.6988    1.0343 C   0  0  0  0  0  0  0  0  0  0  0  0
   -1.5321   -0.6602    0.3842 C   0  0  0  0  0  0  0  0  0  0  0  0
   -2.4534    0.0390    1.1844 C   0  0  0  0  0  0  0  0  0  0  0  0
   -3.2629    1.0342    0.6320 C   0  0  0  0  0  0  0  0  0  0  0  0
   -3.1595    1.3473   -0.7235 C   0  0  0  0  0  0  0  0  0  0  0  0
   -2.2459    0.6665   -1.5304 C   0  0  0  0  0  0  0  0  0  0  0  0
   -1.4290   -0.3339   -0.9889 C   0  0  0  0  0  0  0  0  0  0  0  0
   -0.2931   -1.1425   -2.0647 Cl  0  0  0  0  0  0  0  0  0  0  0  0
    4.1096   -0.9367   -1.2523 H   0  0  0  0  0  0  0  0  0  0  0  0
    3.8401    1.4915   -1.6311 H   0  0  0  0  0  0  0  0  0  0  0  0
    2.0684    2.7475   -0.4395 H   0  0  0  0  0  0  0  0  0  0  0  0
    0.5643    1.5872    1.1311 H   0  0  0  0  0  0  0  0  0  0  0  0
    1.0678   -1.8471    2.3567 H   0  0  0  0  0  0  0  0  0  0  0  0
    0.1374   -0.3458    2.5522 H   0  0  0  0  0  0  0  0  0  0  0  0
   -1.2505   -2.2858    1.7585 H   0  0  0  0  0  0  0  0  0  0  0  0
   -0.2634   -2.4332    0.2947 H   0  0  0  0  0  0  0  0  0  0  0  0
   -2.5404   -0.1844    2.2406 H   0  0  0  0  0  0  0  0  0  0  0  0
   -3.9687    1.5657    1.2571 H   0  0  0  0  0  0  0  0  0  0  0  0
   -3.7863    2.1201   -1.1493 H   0  0  0  0  0  0  0  0  0  0  0  0
   -2.1713    0.9202   -2.5803 H   0  0  0  0  0  0  0  0  0  0  0  0
  1  2  1  0
  2  3  2  0
  3  4  1  0
  4  5  2  0
  5  6  1  0
  6  7  2  0
  7  8  1  0
  8  9  1  0
  9 10  1  0
 10 11  2  0
 11 12  1  0
 12 13  2  0
 13 14  1  0
 14 15  2  0
 15 16  1  0
  7  2  1  0
 15 10  1  0
  3 17  1  0
  4 18  1  0
  5 19  1  0
  6 20  1  0
  8 21  1  0
  8 22  1  0
  9 23  1  0
  9 24  1  0
 11 25  1  0
 12 26  1  0
 13 27  1  0
 14 28  1  0
M  RAD  1   1   3
M  END
$$$$
