
     RDKit          3D

 28 29  0  0  0  0  0  0  0  0999 V2000
   -2.1548    2.2979    0.0550 N   0  0  0  0  0  1  0  0  0  0  0  0
   -2.6896    0.9875   -0.1196 C   0  0  0  0  0  0  0  0  0  0  0  0
   -4.0552    0.7724    0.1024 C   0  0  0  0  0  0  0  0  0  0  0  0
   -4.6003   -0.5052   -0.0465 C   0  0  0  0  0  0  0  0  0  0  0  0
   -3.7824   -1.5757   -0.4133 C   0  0  0  0  0  0  0  0  0  0  0  0
   -2.4183   -1.3708   -0.6373 C   0  0  0  0  0  0  0  0  0  0  0  0
   -1.8601   -0.0872   -0.5061 C   0  0  0  0  0  0  0  0  0  0  0  0
   -0.3787    0.1028   -0.7201 C   0  0  0  0  0  0  0  0  0  0  0  0
    0.3811   -0.0511    0.6013 C   0  0  0  0  0  0  0  0  0  0  0  0
    1.8655    0.1154    0.3849 C   0  0  0  0  0  0  0  0  0  0  0  0
    2.4405    1.3904    0.5299 C   0  0  0  0  0  0  0  0  0  0  0  0
    3.8065    1.5817    0.3081 C   0  0  0  0  0  0  0  0  0  0  0  0
    4.6113    0.5062   -0.0704 C   0  0  0  0  0  0  0  0  0  0  0  0
    4.0513   -0.7626   -0.2335 C   0  0  0  0  0  0  0  0  0  0  0  0
    2.6831   -0.9665   -0.0143 C   0  0  0  0  0  0  0  0  0  0  0  0
    2.0321   -2.5846   -0.2577 Cl  0  0  0  0  0  0  0  0  0  0  0  0
   -4.6950    1.5957    0.3948 H   0  0  0  0  0  0  0  0  0  0  0  0
   -5.6563   -0.6664    0.1277 H   0  0  0  0  0  0  0  0  0  0  0  0
   -4.2051   -2.5663   -0.5209 H   0  0  0  0  0  0  0  0  0  0  0  0
   -1.7959   -2.2138   -0.9116 H   0  0  0  0  0  0  0  0  0  0  0  0
   -0.1796    1.1064   -1.1553 H   0  0  0  0  0  0  0  0  0  0  0  0
   -0.0070   -0.6442   -1.4556 H   0  0  0  0  0  0  0  0  0  0  0  0
    0.0183    0.7096    1.3275 H   0  0  0  0  0  0  0  0  0  0  0  0
    0.1665   -1.0441    1.0515 H   0  0  0  0  0  0  0  0  0  0  0  0
    1.8294    2.2385    0.8139 H   0  0  0  0  0  0  0  0  0  0  0  0
    4.2408    2.5660    0.4267 H   0  0  0  0  0  0  0  0  0  0  0  0
    5.6691    0.6569   -0.2429 H   0  0  0  0  0  0  0  0  0  0  0  0
    4.6827   -1.5887   -0.5353 H   0  0  0  0  0  0  0  0  0  0  0  0
  1  2  1  0
  2  3  2  0
  3  4  1  0
  4  5  2  0
  5  6  1  0
  6  7  2  0
  7  8  1  0
  8  9  1  0
  9 10  1  0
 10 11  2  0
 11 12  1  0
 12 13  2  0
 13 14  1  0
 14 15  2  0
 15 16  1  0
  7  2  1  0
 15 10  1  0
  3 17  1  0
  4 18  1  0
  5 19  1  0
  6 20  1  0
  8 21  1  0
  8 22  1  0
  9 23  1  0
  9 24  1  0
 11 25  1  0
 12 26  1  0
 13 27  1  0
 14 28  1  0
M  RAD  1   1   3
M  END
$$$$
