
     RDKit          3D

 28 29  0  0  0  0  0  0  0  0999 V2000
    1.9538   -1.4004    2.7220 N   0  0  0  0  0  1  0  0  0  0  0  0
    2.0609   -0.3975    1.7140 C   0  0  0  0  0  0  0  0  0  0  0  0
    2.7126    0.8048    2.0139 C   0  0  0  0  0  0  0  0  0  0  0  0
    2.8154    1.8097    1.0491 C   0  0  0  0  0  0  0  0  0  0  0  0
    2.2671    1.6187   -0.2205 C   0  0  0  0  0  0  0  0  0  0  0  0
    1.6169    0.4215   -0.5299 C   0  0  0  0  0  0  0  0  0  0  0  0
    1.5110   -0.6006    0.4302 C   0  0  0  0  0  0  0  0  0  0  0  0
    0.7612   -1.8672    0.0894 C   0  0  0  0  0  0  0  0  0  0  0  0
   -0.7027   -1.8102    0.5510 C   0  0  0  0  0  0  0  0  0  0  0  0
   -1.4902   -0.7585   -0.1992 C   0  0  0  0  0  0  0  0  0  0  0  0
   -1.9302   -1.0453   -1.5038 C   0  0  0  0  0  0  0  0  0  0  0  0
   -2.6249   -0.0878   -2.2462 C   0  0  0  0  0  0  0  0  0  0  0  0
   -2.8844    1.1687   -1.6983 C   0  0  0  0  0  0  0  0  0  0  0  0
   -2.4494    1.4713   -0.4067 C   0  0  0  0  0  0  0  0  0  0  0  0
   -1.7524    0.5197    0.3484 C   0  0  0  0  0  0  0  0  0  0  0  0
   -1.2258    0.9758    1.9658 Cl  0  0  0  0  0  0  0  0  0  0  0  0
    3.1354    0.9634    2.9981 H   0  0  0  0  0  0  0  0  0  0  0  0
    3.3173    2.7386    1.2871 H   0  0  0  0  0  0  0  0  0  0  0  0
    2.3421    2.4009   -0.9648 H   0  0  0  0  0  0  0  0  0  0  0  0
    1.1859    0.2949   -1.5155 H   0  0  0  0  0  0  0  0  0  0  0  0
    0.8012   -2.0568   -1.0059 H   0  0  0  0  0  0  0  0  0  0  0  0
    1.2580   -2.7368    0.5710 H   0  0  0  0  0  0  0  0  0  0  0  0
   -0.7496   -1.6522    1.6485 H   0  0  0  0  0  0  0  0  0  0  0  0
   -1.1667   -2.8040    0.3685 H   0  0  0  0  0  0  0  0  0  0  0  0
   -1.7293   -2.0123   -1.9486 H   0  0  0  0  0  0  0  0  0  0  0  0
   -2.9592   -0.3194   -3.2492 H   0  0  0  0  0  0  0  0  0  0  0  0
   -3.4212    1.9101   -2.2759 H   0  0  0  0  0  0  0  0  0  0  0  0
   -2.6528    2.4508    0.0073 H   0  0  0  0  0  0  0  0  0  0  0  0
  1  2  1  0
  2  3  2  0
  3  4  1  0
  4  5  2  0
  5  6  1  0
  6  7  2  0
  7  8  1  0
  8  9  1  0
  9 10  1  0
 10 11  2  0
 11 12  1  0
 12 13  2  0
 13 14  1  0
 14 15  2  0
 15 16  1  0
  7  2  1  0
 15 10  1  0
  3 17  1  0
  4 18  1  0
  5 19  1  0
  6 20  1  0
  8 21  1  0
  8 22  1  0
  9 23  1  0
  9 24  1  0
 11 25  1  0
 12 26  1  0
 13 27  1  0
 14 28  1  0
M  RAD  1   1   3
M  END
$$$$
