
     RDKit          3D

 28 29  0  0  0  0  0  0  0  0999 V2000
    2.4554   -2.4211   -1.1388 N   0  0  0  0  0  1  0  0  0  0  0  0
    2.3886   -1.0611   -0.7156 C   0  0  0  0  0  0  0  0  0  0  0  0
    3.2000   -0.1095   -1.3451 C   0  0  0  0  0  0  0  0  0  0  0  0
    3.1404    1.2320   -0.9605 C   0  0  0  0  0  0  0  0  0  0  0  0
    2.2690    1.6300    0.0551 C   0  0  0  0  0  0  0  0  0  0  0  0
    1.4570    0.6875    0.6908 C   0  0  0  0  0  0  0  0  0  0  0  0
    1.5110   -0.6671    0.3172 C   0  0  0  0  0  0  0  0  0  0  0  0
    0.5889   -1.6607    0.9845 C   0  0  0  0  0  0  0  0  0  0  0  0
   -0.6958   -1.8868    0.1735 C   0  0  0  0  0  0  0  0  0  0  0  0
   -1.5528   -0.6413    0.1154 C   0  0  0  0  0  0  0  0  0  0  0  0
   -2.3374   -0.3071    1.2336 C   0  0  0  0  0  0  0  0  0  0  0  0
   -3.1115    0.8554    1.2370 C   0  0  0  0  0  0  0  0  0  0  0  0
   -3.1081    1.7010    0.1274 C   0  0  0  0  0  0  0  0  0  0  0  0
   -2.3302    1.3866   -0.9885 C   0  0  0  0  0  0  0  0  0  0  0  0
   -1.5502    0.2235   -1.0047 C   0  0  0  0  0  0  0  0  0  0  0  0
   -0.5866   -0.1027   -2.4422 Cl  0  0  0  0  0  0  0  0  0  0  0  0
    3.8743   -0.4089   -2.1378 H   0  0  0  0  0  0  0  0  0  0  0  0
    3.7674    1.9641   -1.4527 H   0  0  0  0  0  0  0  0  0  0  0  0
    2.2195    2.6709    0.3475 H   0  0  0  0  0  0  0  0  0  0  0  0
    0.7774    1.0154    1.4678 H   0  0  0  0  0  0  0  0  0  0  0  0
    1.1133   -2.6326    1.1085 H   0  0  0  0  0  0  0  0  0  0  0  0
    0.3286   -1.3176    2.0101 H   0  0  0  0  0  0  0  0  0  0  0  0
   -0.4444   -2.2592   -0.8412 H   0  0  0  0  0  0  0  0  0  0  0  0
   -1.2779   -2.7005    0.6586 H   0  0  0  0  0  0  0  0  0  0  0  0
   -2.3448   -0.9471    2.1075 H   0  0  0  0  0  0  0  0  0  0  0  0
   -3.7119    1.1027    2.1029 H   0  0  0  0  0  0  0  0  0  0  0  0
   -3.7071    2.6024    0.1326 H   0  0  0  0  0  0  0  0  0  0  0  0
   -2.3321    2.0518   -1.8427 H   0  0  0  0  0  0  0  0  0  0  0  0
  1  2  1  0
  2  3  2  0
  3  4  1  0
  4  5  2  0
  5  6  1  0
  6  7  2  0
  7  8  1  0
  8  9  1  0
  9 10  1  0
 10 11  2  0
 11 12  1  0
 12 13  2  0
 13 14  1  0
 14 15  2  0
 15 16  1  0
  7  2  1  0
 15 10  1  0
  3 17  1  0
  4 18  1  0
  5 19  1  0
  6 20  1  0
  8 21  1  0
  8 22  1  0
  9 23  1  0
  9 24  1  0
 11 25  1  0
 12 26  1  0
 13 27  1  0
 14 28  1  0
M  RAD  1   1   3
M  END
$$$$
