
     RDKit          3D

 28 29  0  0  0  0  0  0  0  0999 V2000
    1.7694   -2.9666    1.0471 N   0  0  0  0  0  1  0  0  0  0  0  0
    1.9311   -1.5500    1.0269 C   0  0  0  0  0  0  0  0  0  0  0  0
    2.5303   -0.9157    2.1218 C   0  0  0  0  0  0  0  0  0  0  0  0
    2.6844    0.4726    2.1337 C   0  0  0  0  0  0  0  0  0  0  0  0
    2.2400    1.2346    1.0516 C   0  0  0  0  0  0  0  0  0  0  0  0
    1.6429    0.6105   -0.0465 C   0  0  0  0  0  0  0  0  0  0  0  0
    1.4866   -0.7867   -0.0739 C   0  0  0  0  0  0  0  0  0  0  0  0
    0.7942   -1.4354   -1.2497 C   0  0  0  0  0  0  0  0  0  0  0  0
   -0.7018   -1.6596   -0.9834 C   0  0  0  0  0  0  0  0  0  0  0  0
   -1.4528   -0.3532   -0.8486 C   0  0  0  0  0  0  0  0  0  0  0  0
   -1.7844    0.3601   -2.0145 C   0  0  0  0  0  0  0  0  0  0  0  0
   -2.4412    1.5899   -1.9328 C   0  0  0  0  0  0  0  0  0  0  0  0
   -2.7706    2.1253   -0.6873 C   0  0  0  0  0  0  0  0  0  0  0  0
   -2.4434    1.4327    0.4799 C   0  0  0  0  0  0  0  0  0  0  0  0
   -1.7854    0.1982    0.4115 C   0  0  0  0  0  0  0  0  0  0  0  0
   -1.3955   -0.6129    1.9252 Cl  0  0  0  0  0  0  0  0  0  0  0  0
    2.8724   -1.4987    2.9677 H   0  0  0  0  0  0  0  0  0  0  0  0
    3.1453    0.9583    2.9840 H   0  0  0  0  0  0  0  0  0  0  0  0
    2.3545    2.3108    1.0653 H   0  0  0  0  0  0  0  0  0  0  0  0
    1.2922    1.2179   -0.8719 H   0  0  0  0  0  0  0  0  0  0  0  0
    0.9227   -0.8150   -2.1639 H   0  0  0  0  0  0  0  0  0  0  0  0
    1.2720   -2.4139   -1.4716 H   0  0  0  0  0  0  0  0  0  0  0  0
   -0.8367   -2.3041   -0.0900 H   0  0  0  0  0  0  0  0  0  0  0  0
   -1.1278   -2.2319   -1.8362 H   0  0  0  0  0  0  0  0  0  0  0  0
   -1.5279   -0.0360   -2.9895 H   0  0  0  0  0  0  0  0  0  0  0  0
   -2.6919    2.1301   -2.8365 H   0  0  0  0  0  0  0  0  0  0  0  0
   -3.2780    3.0794   -0.6260 H   0  0  0  0  0  0  0  0  0  0  0  0
   -2.7004    1.8592    1.4413 H   0  0  0  0  0  0  0  0  0  0  0  0
  1  2  1  0
  2  3  2  0
  3  4  1  0
  4  5  2  0
  5  6  1  0
  6  7  2  0
  7  8  1  0
  8  9  1  0
  9 10  1  0
 10 11  2  0
 11 12  1  0
 12 13  2  0
 13 14  1  0
 14 15  2  0
 15 16  1  0
  7  2  1  0
 15 10  1  0
  3 17  1  0
  4 18  1  0
  5 19  1  0
  6 20  1  0
  8 21  1  0
  8 22  1  0
  9 23  1  0
  9 24  1  0
 11 25  1  0
 12 26  1  0
 13 27  1  0
 14 28  1  0
M  RAD  1   1   3
M  END
$$$$
