
     RDKit          3D

 28 29  0  0  0  0  0  0  0  0999 V2000
    2.5407   -2.4189   -0.8113 N   0  0  0  0  0  1  0  0  0  0  0  0
    2.4410   -1.0671   -0.3685 C   0  0  0  0  0  0  0  0  0  0  0  0
    3.3174   -0.1102   -0.8941 C   0  0  0  0  0  0  0  0  0  0  0  0
    3.2286    1.2238   -0.4893 C   0  0  0  0  0  0  0  0  0  0  0  0
    2.2630    1.6088    0.4425 C   0  0  0  0  0  0  0  0  0  0  0  0
    1.3853    0.6608    0.9743 C   0  0  0  0  0  0  0  0  0  0  0  0
    1.4674   -0.6865    0.5798 C   0  0  0  0  0  0  0  0  0  0  0  0
    0.4767   -1.6852    1.1310 C   0  0  0  0  0  0  0  0  0  0  0  0
   -0.7221   -1.8838    0.1915 C   0  0  0  0  0  0  0  0  0  0  0  0
   -1.5607   -0.6300    0.0744 C   0  0  0  0  0  0  0  0  0  0  0  0
   -2.4508   -0.3116    1.1157 C   0  0  0  0  0  0  0  0  0  0  0  0
   -3.2136    0.8573    1.0663 C   0  0  0  0  0  0  0  0  0  0  0  0
   -3.0939    1.7250   -0.0195 C   0  0  0  0  0  0  0  0  0  0  0  0
   -2.2107    1.4264   -1.0587 C   0  0  0  0  0  0  0  0  0  0  0  0
   -1.4407    0.2571   -1.0215 C   0  0  0  0  0  0  0  0  0  0  0  0
   -0.3408   -0.0484   -2.3624 Cl  0  0  0  0  0  0  0  0  0  0  0  0
    4.0654   -0.3993   -1.6217 H   0  0  0  0  0  0  0  0  0  0  0  0
    3.9065    1.9602   -0.9012 H   0  0  0  0  0  0  0  0  0  0  0  0
    2.1914    2.6440    0.7502 H   0  0  0  0  0  0  0  0  0  0  0  0
    0.6338    0.9788    1.6865 H   0  0  0  0  0  0  0  0  0  0  0  0
    0.1177   -1.3606    2.1325 H   0  0  0  0  0  0  0  0  0  0  0  0
    0.9797   -2.6639    1.2862 H   0  0  0  0  0  0  0  0  0  0  0  0
   -0.3733   -2.2378   -0.8007 H   0  0  0  0  0  0  0  0  0  0  0  0
   -1.3551   -2.7020    0.5991 H   0  0  0  0  0  0  0  0  0  0  0  0
   -2.5496   -0.9690    1.9710 H   0  0  0  0  0  0  0  0  0  0  0  0
   -3.8957    1.0923    1.8731 H   0  0  0  0  0  0  0  0  0  0  0  0
   -3.6846    2.6313   -0.0551 H   0  0  0  0  0  0  0  0  0  0  0  0
   -2.1230    2.1087   -1.8948 H   0  0  0  0  0  0  0  0  0  0  0  0
  1  2  1  0
  2  3  2  0
  3  4  1  0
  4  5  2  0
  5  6  1  0
  6  7  2  0
  7  8  1  0
  8  9  1  0
  9 10  1  0
 10 11  2  0
 11 12  1  0
 12 13  2  0
 13 14  1  0
 14 15  2  0
 15 16  1  0
  7  2  1  0
 15 10  1  0
  3 17  1  0
  4 18  1  0
  5 19  1  0
  6 20  1  0
  8 21  1  0
  8 22  1  0
  9 23  1  0
  9 24  1  0
 11 25  1  0
 12 26  1  0
 13 27  1  0
 14 28  1  0
M  RAD  1   1   3
M  END
$$$$
