
     RDKit          3D

 28 29  0  0  0  0  0  0  0  0999 V2000
    2.7557   -1.1465    2.0687 N   0  0  0  0  0  1  0  0  0  0  0  0
    2.5348   -0.5040    0.8150 C   0  0  0  0  0  0  0  0  0  0  0  0
    3.4126    0.5050    0.4009 C   0  0  0  0  0  0  0  0  0  0  0  0
    3.2077    1.1614   -0.8149 C   0  0  0  0  0  0  0  0  0  0  0  0
    2.1240    0.8135   -1.6234 C   0  0  0  0  0  0  0  0  0  0  0  0
    1.2438   -0.1937   -1.2198 C   0  0  0  0  0  0  0  0  0  0  0  0
    1.4416   -0.8664   -0.0009 C   0  0  0  0  0  0  0  0  0  0  0  0
    0.4498   -1.9182    0.4384 C   0  0  0  0  0  0  0  0  0  0  0  0
   -0.6232   -1.3411    1.3737 C   0  0  0  0  0  0  0  0  0  0  0  0
   -1.5090   -0.3394    0.6660 C   0  0  0  0  0  0  0  0  0  0  0  0
   -2.5264   -0.8151   -0.1804 C   0  0  0  0  0  0  0  0  0  0  0  0
   -3.3400    0.0756   -0.8841 C   0  0  0  0  0  0  0  0  0  0  0  0
   -3.1452    1.4511   -0.7560 C   0  0  0  0  0  0  0  0  0  0  0  0
   -2.1358    1.9396    0.0756 C   0  0  0  0  0  0  0  0  0  0  0  0
   -1.3137    1.0569    0.7872 C   0  0  0  0  0  0  0  0  0  0  0  0
   -0.0549    1.7451    1.8086 Cl  0  0  0  0  0  0  0  0  0  0  0  0
    4.2522    0.7851    1.0247 H   0  0  0  0  0  0  0  0  0  0  0  0
    3.8874    1.9431   -1.1288 H   0  0  0  0  0  0  0  0  0  0  0  0
    1.9631    1.3275   -2.5622 H   0  0  0  0  0  0  0  0  0  0  0  0
    0.4010   -0.4423   -1.8530 H   0  0  0  0  0  0  0  0  0  0  0  0
   -0.0366   -2.3839   -0.4469 H   0  0  0  0  0  0  0  0  0  0  0  0
    0.9835   -2.7389    0.9641 H   0  0  0  0  0  0  0  0  0  0  0  0
   -1.2535   -2.1792    1.7433 H   0  0  0  0  0  0  0  0  0  0  0  0
   -0.1463   -0.9022    2.2746 H   0  0  0  0  0  0  0  0  0  0  0  0
   -2.6857   -1.8799   -0.2991 H   0  0  0  0  0  0  0  0  0  0  0  0
   -4.1203   -0.3016   -1.5324 H   0  0  0  0  0  0  0  0  0  0  0  0
   -3.7756    2.1398   -1.3036 H   0  0  0  0  0  0  0  0  0  0  0  0
   -1.9910    3.0088    0.1647 H   0  0  0  0  0  0  0  0  0  0  0  0
  1  2  1  0
  2  3  2  0
  3  4  1  0
  4  5  2  0
  5  6  1  0
  6  7  2  0
  7  8  1  0
  8  9  1  0
  9 10  1  0
 10 11  2  0
 11 12  1  0
 12 13  2  0
 13 14  1  0
 14 15  2  0
 15 16  1  0
  7  2  1  0
 15 10  1  0
  3 17  1  0
  4 18  1  0
  5 19  1  0
  6 20  1  0
  8 21  1  0
  8 22  1  0
  9 23  1  0
  9 24  1  0
 11 25  1  0
 12 26  1  0
 13 27  1  0
 14 28  1  0
M  RAD  1   1   3
M  END
$$$$
