
     RDKit          3D

 28 29  0  0  0  0  0  0  0  0999 V2000
    1.8713   -2.3957   -0.8342 N   0  0  0  0  0  1  0  0  0  0  0  0
    2.5546   -1.1771   -0.5484 C   0  0  0  0  0  0  0  0  0  0  0  0
    3.9378   -1.2045   -0.3330 C   0  0  0  0  0  0  0  0  0  0  0  0
    4.6277   -0.0268   -0.0358 C   0  0  0  0  0  0  0  0  0  0  0  0
    3.9381    1.1841    0.0525 C   0  0  0  0  0  0  0  0  0  0  0  0
    2.5576    1.2215   -0.1612 C   0  0  0  0  0  0  0  0  0  0  0  0
    1.8538    0.0460   -0.4764 C   0  0  0  0  0  0  0  0  0  0  0  0
    0.3586    0.1059   -0.6695 C   0  0  0  0  0  0  0  0  0  0  0  0
   -0.3669   -0.1548    0.6544 C   0  0  0  0  0  0  0  0  0  0  0  0
   -1.8624   -0.0719    0.4678 C   0  0  0  0  0  0  0  0  0  0  0  0
   -2.5818   -1.2428    0.1695 C   0  0  0  0  0  0  0  0  0  0  0  0
   -3.9626   -1.1935   -0.0371 C   0  0  0  0  0  0  0  0  0  0  0  0
   -4.6387    0.0248    0.0413 C   0  0  0  0  0  0  0  0  0  0  0  0
   -3.9352    1.1981    0.3213 C   0  0  0  0  0  0  0  0  0  0  0  0
   -2.5508    1.1612    0.5299 C   0  0  0  0  0  0  0  0  0  0  0  0
   -1.7165    2.6772    0.8572 Cl  0  0  0  0  0  0  0  0  0  0  0  0
    4.4790   -2.1406   -0.3918 H   0  0  0  0  0  0  0  0  0  0  0  0
    5.6967   -0.0536    0.1314 H   0  0  0  0  0  0  0  0  0  0  0  0
    4.4731    2.0944    0.2903 H   0  0  0  0  0  0  0  0  0  0  0  0
    2.0361    2.1673   -0.0792 H   0  0  0  0  0  0  0  0  0  0  0  0
    0.0395   -0.6415   -1.4283 H   0  0  0  0  0  0  0  0  0  0  0  0
    0.0709    1.1053   -1.0642 H   0  0  0  0  0  0  0  0  0  0  0  0
   -0.0336    0.5756    1.4226 H   0  0  0  0  0  0  0  0  0  0  0  0
   -0.0899   -1.1624    1.0360 H   0  0  0  0  0  0  0  0  0  0  0  0
   -2.0721   -2.1957    0.0953 H   0  0  0  0  0  0  0  0  0  0  0  0
   -4.5084   -2.1008   -0.2617 H   0  0  0  0  0  0  0  0  0  0  0  0
   -5.7084    0.0609   -0.1204 H   0  0  0  0  0  0  0  0  0  0  0  0
   -4.4678    2.1394    0.3719 H   0  0  0  0  0  0  0  0  0  0  0  0
  1  2  1  0
  2  3  2  0
  3  4  1  0
  4  5  2  0
  5  6  1  0
  6  7  2  0
  7  8  1  0
  8  9  1  0
  9 10  1  0
 10 11  2  0
 11 12  1  0
 12 13  2  0
 13 14  1  0
 14 15  2  0
 15 16  1  0
  7  2  1  0
 15 10  1  0
  3 17  1  0
  4 18  1  0
  5 19  1  0
  6 20  1  0
  8 21  1  0
  8 22  1  0
  9 23  1  0
  9 24  1  0
 11 25  1  0
 12 26  1  0
 13 27  1  0
 14 28  1  0
M  RAD  1   1   3
M  END
$$$$
