
     RDKit          3D

 28 29  0  0  0  0  0  0  0  0999 V2000
   -2.1945    2.2192    0.4602 N   0  0  0  0  0  1  0  0  0  0  0  0
   -2.7091    0.9227    0.1638 C   0  0  0  0  0  0  0  0  0  0  0  0
   -4.0473    0.7925   -0.2271 C   0  0  0  0  0  0  0  0  0  0  0  0
   -4.5710   -0.4646   -0.5381 C   0  0  0  0  0  0  0  0  0  0  0  0
   -3.7587   -1.5979   -0.4647 C   0  0  0  0  0  0  0  0  0  0  0  0
   -2.4220   -1.4780   -0.0752 C   0  0  0  0  0  0  0  0  0  0  0  0
   -1.8868   -0.2208    0.2554 C   0  0  0  0  0  0  0  0  0  0  0  0
   -0.4320   -0.1121    0.6406 C   0  0  0  0  0  0  0  0  0  0  0  0
    0.4334    0.1622   -0.5936 C   0  0  0  0  0  0  0  0  0  0  0  0
    1.8915    0.2479   -0.2134 C   0  0  0  0  0  0  0  0  0  0  0  0
    2.4449    1.5014    0.1028 C   0  0  0  0  0  0  0  0  0  0  0  0
    3.7840    1.6092    0.4860 C   0  0  0  0  0  0  0  0  0  0  0  0
    4.5824    0.4675    0.5680 C   0  0  0  0  0  0  0  0  0  0  0  0
    4.0425   -0.7859    0.2720 C   0  0  0  0  0  0  0  0  0  0  0  0
    2.7013   -0.9064   -0.1130 C   0  0  0  0  0  0  0  0  0  0  0  0
    2.0729   -2.5163   -0.4517 Cl  0  0  0  0  0  0  0  0  0  0  0  0
   -4.6819    1.6674   -0.2942 H   0  0  0  0  0  0  0  0  0  0  0  0
   -5.6056   -0.5596   -0.8413 H   0  0  0  0  0  0  0  0  0  0  0  0
   -4.1642   -2.5702   -0.7133 H   0  0  0  0  0  0  0  0  0  0  0  0
   -1.8028   -2.3657   -0.0330 H   0  0  0  0  0  0  0  0  0  0  0  0
   -0.2925    0.6998    1.3873 H   0  0  0  0  0  0  0  0  0  0  0  0
   -0.1014   -1.0555    1.1283 H   0  0  0  0  0  0  0  0  0  0  0  0
    0.2794   -0.6348   -1.3525 H   0  0  0  0  0  0  0  0  0  0  0  0
    0.1106    1.1156   -1.0674 H   0  0  0  0  0  0  0  0  0  0  0  0
    1.8376    2.3970    0.0538 H   0  0  0  0  0  0  0  0  0  0  0  0
    4.2021    2.5790    0.7230 H   0  0  0  0  0  0  0  0  0  0  0  0
    5.6193    0.5531    0.8663 H   0  0  0  0  0  0  0  0  0  0  0  0
    4.6680   -1.6665    0.3465 H   0  0  0  0  0  0  0  0  0  0  0  0
  1  2  1  0
  2  3  2  0
  3  4  1  0
  4  5  2  0
  5  6  1  0
  6  7  2  0
  7  8  1  0
  8  9  1  0
  9 10  1  0
 10 11  2  0
 11 12  1  0
 12 13  2  0
 13 14  1  0
 14 15  2  0
 15 16  1  0
  7  2  1  0
 15 10  1  0
  3 17  1  0
  4 18  1  0
  5 19  1  0
  6 20  1  0
  8 21  1  0
  8 22  1  0
  9 23  1  0
  9 24  1  0
 11 25  1  0
 12 26  1  0
 13 27  1  0
 14 28  1  0
M  RAD  1   1   3
M  END
$$$$
