
     RDKit          3D

 28 29  0  0  0  0  0  0  0  0999 V2000
    1.9312   -2.4579   -0.3986 N   0  0  0  0  0  1  0  0  0  0  0  0
    2.5899   -1.2085   -0.2018 C   0  0  0  0  0  0  0  0  0  0  0  0
    3.9521   -1.1986    0.1218 C   0  0  0  0  0  0  0  0  0  0  0  0
    4.6164    0.0116    0.3352 C   0  0  0  0  0  0  0  0  0  0  0  0
    3.9218    1.2183    0.2311 C   0  0  0  0  0  0  0  0  0  0  0  0
    2.5621    1.2185   -0.0917 C   0  0  0  0  0  0  0  0  0  0  0  0
    1.8852    0.0084   -0.3242 C   0  0  0  0  0  0  0  0  0  0  0  0
    0.4097    0.0324   -0.6380 C   0  0  0  0  0  0  0  0  0  0  0  0
   -0.4168   -0.0827    0.6468 C   0  0  0  0  0  0  0  0  0  0  0  0
   -1.8932   -0.0353    0.3368 C   0  0  0  0  0  0  0  0  0  0  0  0
   -2.5868   -1.2390    0.1192 C   0  0  0  0  0  0  0  0  0  0  0  0
   -3.9474   -1.2261   -0.1979 C   0  0  0  0  0  0  0  0  0  0  0  0
   -4.6279   -0.0130   -0.3116 C   0  0  0  0  0  0  0  0  0  0  0  0
   -3.9485    1.1910   -0.1137 C   0  0  0  0  0  0  0  0  0  0  0  0
   -2.5846    1.1906    0.2043 C   0  0  0  0  0  0  0  0  0  0  0  0
   -1.7787    2.7415    0.4201 Cl  0  0  0  0  0  0  0  0  0  0  0  0
    4.4964   -2.1303    0.2123 H   0  0  0  0  0  0  0  0  0  0  0  0
    5.6692    0.0137    0.5866 H   0  0  0  0  0  0  0  0  0  0  0  0
    4.4364    2.1546    0.4041 H   0  0  0  0  0  0  0  0  0  0  0  0
    2.0356    2.1627   -0.1588 H   0  0  0  0  0  0  0  0  0  0  0  0
    0.1509   -0.7994   -1.3290 H   0  0  0  0  0  0  0  0  0  0  0  0
    0.1534    0.9776   -1.1653 H   0  0  0  0  0  0  0  0  0  0  0  0
   -0.1701   -1.0378    1.1612 H   0  0  0  0  0  0  0  0  0  0  0  0
   -0.1445    0.7334    1.3502 H   0  0  0  0  0  0  0  0  0  0  0  0
   -2.0727   -2.1894    0.1940 H   0  0  0  0  0  0  0  0  0  0  0  0
   -4.4738   -2.1580   -0.3590 H   0  0  0  0  0  0  0  0  0  0  0  0
   -5.6816   -0.0052   -0.5586 H   0  0  0  0  0  0  0  0  0  0  0  0
   -4.4837    2.1270   -0.2122 H   0  0  0  0  0  0  0  0  0  0  0  0
  1  2  1  0
  2  3  2  0
  3  4  1  0
  4  5  2  0
  5  6  1  0
  6  7  2  0
  7  8  1  0
  8  9  1  0
  9 10  1  0
 10 11  2  0
 11 12  1  0
 12 13  2  0
 13 14  1  0
 14 15  2  0
 15 16  1  0
  7  2  1  0
 15 10  1  0
  3 17  1  0
  4 18  1  0
  5 19  1  0
  6 20  1  0
  8 21  1  0
  8 22  1  0
  9 23  1  0
  9 24  1  0
 11 25  1  0
 12 26  1  0
 13 27  1  0
 14 28  1  0
M  RAD  1   1   3
M  END
$$$$
