
     RDKit          3D

 28 29  0  0  0  0  0  0  0  0999 V2000
    2.1963   -2.7849    0.8654 N   0  0  0  0  0  1  0  0  0  0  0  0
    2.1771   -1.6133    0.0528 C   0  0  0  0  0  0  0  0  0  0  0  0
    2.7604   -1.6552   -1.2193 C   0  0  0  0  0  0  0  0  0  0  0  0
    2.7392   -0.5260   -2.0413 C   0  0  0  0  0  0  0  0  0  0  0  0
    2.1343    0.6511   -1.5968 C   0  0  0  0  0  0  0  0  0  0  0  0
    1.5514    0.7033   -0.3281 C   0  0  0  0  0  0  0  0  0  0  0  0
    1.5706   -0.4244    0.5118 C   0  0  0  0  0  0  0  0  0  0  0  0
    0.8916   -0.3601    1.8599 C   0  0  0  0  0  0  0  0  0  0  0  0
   -0.5443   -0.9030    1.8065 C   0  0  0  0  0  0  0  0  0  0  0  0
   -1.4434   -0.0369    0.9519 C   0  0  0  0  0  0  0  0  0  0  0  0
   -1.9358    1.1654    1.4905 C   0  0  0  0  0  0  0  0  0  0  0  0
   -2.7355    2.0138    0.7215 C   0  0  0  0  0  0  0  0  0  0  0  0
   -3.0493    1.6758   -0.5951 C   0  0  0  0  0  0  0  0  0  0  0  0
   -2.5638    0.4887   -1.1467 C   0  0  0  0  0  0  0  0  0  0  0  0
   -1.7615   -0.3710   -0.3859 C   0  0  0  0  0  0  0  0  0  0  0  0
   -1.1768   -1.8453   -1.1513 Cl  0  0  0  0  0  0  0  0  0  0  0  0
    3.2264   -2.5660   -1.5741 H   0  0  0  0  0  0  0  0  0  0  0  0
    3.1888   -0.5647   -3.0251 H   0  0  0  0  0  0  0  0  0  0  0  0
    2.1132    1.5231   -2.2375 H   0  0  0  0  0  0  0  0  0  0  0  0
    1.0752    1.6205   -0.0040 H   0  0  0  0  0  0  0  0  0  0  0  0
    0.8824    0.6859    2.2382 H   0  0  0  0  0  0  0  0  0  0  0  0
    1.4734   -0.9505    2.6001 H   0  0  0  0  0  0  0  0  0  0  0  0
   -0.5397   -1.9570    1.4593 H   0  0  0  0  0  0  0  0  0  0  0  0
   -0.9485   -0.9275    2.8420 H   0  0  0  0  0  0  0  0  0  0  0  0
   -1.6944    1.4482    2.5078 H   0  0  0  0  0  0  0  0  0  0  0  0
   -3.1093    2.9364    1.1463 H   0  0  0  0  0  0  0  0  0  0  0  0
   -3.6677    2.3355   -1.1900 H   0  0  0  0  0  0  0  0  0  0  0  0
   -2.8104    0.2381   -2.1707 H   0  0  0  0  0  0  0  0  0  0  0  0
  1  2  1  0
  2  3  2  0
  3  4  1  0
  4  5  2  0
  5  6  1  0
  6  7  2  0
  7  8  1  0
  8  9  1  0
  9 10  1  0
 10 11  2  0
 11 12  1  0
 12 13  2  0
 13 14  1  0
 14 15  2  0
 15 16  1  0
  7  2  1  0
 15 10  1  0
  3 17  1  0
  4 18  1  0
  5 19  1  0
  6 20  1  0
  8 21  1  0
  8 22  1  0
  9 23  1  0
  9 24  1  0
 11 25  1  0
 12 26  1  0
 13 27  1  0
 14 28  1  0
M  RAD  1   1   3
M  END
$$$$
