
     RDKit          3D

 28 29  0  0  0  0  0  0  0  0999 V2000
   -2.7232   -2.3242   -0.0590 N   0  0  0  0  0  1  0  0  0  0  0  0
   -2.4942   -0.9178   -0.1121 C   0  0  0  0  0  0  0  0  0  0  0  0
   -3.3952   -0.0549    0.5233 C   0  0  0  0  0  0  0  0  0  0  0  0
   -3.1867    1.3261    0.4953 C   0  0  0  0  0  0  0  0  0  0  0  0
   -2.0761    1.8521   -0.1671 C   0  0  0  0  0  0  0  0  0  0  0  0
   -1.1725    0.9992   -0.8058 C   0  0  0  0  0  0  0  0  0  0  0  0
   -1.3739   -0.3926   -0.7908 C   0  0  0  0  0  0  0  0  0  0  0  0
   -0.3575   -1.2992   -1.4463 C   0  0  0  0  0  0  0  0  0  0  0  0
    0.6467   -1.8639   -0.4302 C   0  0  0  0  0  0  0  0  0  0  0  0
    1.4787   -0.7748    0.2087 C   0  0  0  0  0  0  0  0  0  0  0  0
    1.0888   -0.2572    1.4573 C   0  0  0  0  0  0  0  0  0  0  0  0
    1.8110    0.7796    2.0524 C   0  0  0  0  0  0  0  0  0  0  0  0
    2.9276    1.3138    1.4082 C   0  0  0  0  0  0  0  0  0  0  0  0
    3.3235    0.8144    0.1658 C   0  0  0  0  0  0  0  0  0  0  0  0
    2.6060   -0.2236   -0.4418 C   0  0  0  0  0  0  0  0  0  0  0  0
    3.1481   -0.8020   -2.0139 Cl  0  0  0  0  0  0  0  0  0  0  0  0
   -4.2567   -0.4549    1.0433 H   0  0  0  0  0  0  0  0  0  0  0  0
   -3.8849    1.9886    0.9904 H   0  0  0  0  0  0  0  0  0  0  0  0
   -1.9126    2.9219   -0.1823 H   0  0  0  0  0  0  0  0  0  0  0  0
   -0.3089    1.4231   -1.3035 H   0  0  0  0  0  0  0  0  0  0  0  0
    0.1861   -0.7535   -2.2480 H   0  0  0  0  0  0  0  0  0  0  0  0
   -0.8791   -2.1437   -1.9459 H   0  0  0  0  0  0  0  0  0  0  0  0
    0.1020   -2.4407    0.3492 H   0  0  0  0  0  0  0  0  0  0  0  0
    1.3101   -2.5937   -0.9411 H   0  0  0  0  0  0  0  0  0  0  0  0
    0.2171   -0.6503    1.9661 H   0  0  0  0  0  0  0  0  0  0  0  0
    1.5017    1.1720    3.0125 H   0  0  0  0  0  0  0  0  0  0  0  0
    3.4853    2.1179    1.8706 H   0  0  0  0  0  0  0  0  0  0  0  0
    4.1889    1.2385   -0.3276 H   0  0  0  0  0  0  0  0  0  0  0  0
  1  2  1  0
  2  3  2  0
  3  4  1  0
  4  5  2  0
  5  6  1  0
  6  7  2  0
  7  8  1  0
  8  9  1  0
  9 10  1  0
 10 11  2  0
 11 12  1  0
 12 13  2  0
 13 14  1  0
 14 15  2  0
 15 16  1  0
  7  2  1  0
 15 10  1  0
  3 17  1  0
  4 18  1  0
  5 19  1  0
  6 20  1  0
  8 21  1  0
  8 22  1  0
  9 23  1  0
  9 24  1  0
 11 25  1  0
 12 26  1  0
 13 27  1  0
 14 28  1  0
M  RAD  1   1   3
M  END
$$$$
