
     RDKit          3D

 31 32  0  0  0  0  0  0  0  0999 V2000
   -2.3181   -2.6936    0.0625 N   0  0  0  0  0  1  0  0  0  0  0  0
   -3.0996   -1.5011    0.0915 C   0  0  0  0  0  0  0  0  0  0  0  0
   -4.4835   -1.5871   -0.1029 C   0  0  0  0  0  0  0  0  0  0  0  0
   -5.2690   -0.4319   -0.0943 C   0  0  0  0  0  0  0  0  0  0  0  0
   -4.6749    0.8159    0.1039 C   0  0  0  0  0  0  0  0  0  0  0  0
   -3.2944    0.9118    0.2989 C   0  0  0  0  0  0  0  0  0  0  0  0
   -2.4944   -0.2443    0.3078 C   0  0  0  0  0  0  0  0  0  0  0  0
   -1.0019   -0.1134    0.4875 C   0  0  0  0  0  0  0  0  0  0  0  0
   -0.3030    0.0016   -0.8705 C   0  0  0  0  0  0  0  0  0  0  0  0
    1.1858    0.1280   -0.6899 C   0  0  0  0  0  0  0  0  0  0  0  0
    1.9905   -1.0192   -0.6228 C   0  0  0  0  0  0  0  0  0  0  0  0
    3.3693   -0.9040   -0.4231 C   0  0  0  0  0  0  0  0  0  0  0  0
    3.9625    0.3597   -0.2583 C   0  0  0  0  0  0  0  0  0  0  0  0
    5.4560    0.4866   -0.0920 C   0  0  0  0  0  0  0  0  0  0  0  0
    5.9701   -0.6169    0.5667 F   0  0  0  0  0  0  0  0  0  0  0  0
    6.0460    0.5825   -1.3383 F   0  0  0  0  0  0  0  0  0  0  0  0
    5.7718    1.6153    0.6445 F   0  0  0  0  0  0  0  0  0  0  0  0
    3.1549    1.5075   -0.3389 C   0  0  0  0  0  0  0  0  0  0  0  0
    1.7763    1.3915   -0.5386 C   0  0  0  0  0  0  0  0  0  0  0  0
   -4.9512   -2.5502   -0.2649 H   0  0  0  0  0  0  0  0  0  0  0  0
   -6.3382   -0.5037   -0.2465 H   0  0  0  0  0  0  0  0  0  0  0  0
   -5.2841    1.7106    0.1029 H   0  0  0  0  0  0  0  0  0  0  0  0
   -2.8482    1.8884    0.4418 H   0  0  0  0  0  0  0  0  0  0  0  0
   -0.7731    0.7868    1.1002 H   0  0  0  0  0  0  0  0  0  0  0  0
   -0.6059   -0.9905    1.0445 H   0  0  0  0  0  0  0  0  0  0  0  0
   -0.6929    0.8882   -1.4181 H   0  0  0  0  0  0  0  0  0  0  0  0
   -0.5315   -0.8944   -1.4888 H   0  0  0  0  0  0  0  0  0  0  0  0
    1.5505   -2.0031   -0.7292 H   0  0  0  0  0  0  0  0  0  0  0  0
    3.9714   -1.8035   -0.3962 H   0  0  0  0  0  0  0  0  0  0  0  0
    3.5894    2.4949   -0.2461 H   0  0  0  0  0  0  0  0  0  0  0  0
    1.1692    2.2876   -0.5794 H   0  0  0  0  0  0  0  0  0  0  0  0
  1  2  1  0
  2  3  2  0
  3  4  1  0
  4  5  2  0
  5  6  1  0
  6  7  2  0
  7  8  1  0
  8  9  1  0
  9 10  1  0
 10 11  1  0
 11 12  2  0
 12 13  1  0
 13 14  1  0
 14 15  1  0
 14 16  1  0
 14 17  1  0
 13 18  2  0
 18 19  1  0
  7  2  1  0
 19 10  2  0
  3 20  1  0
  4 21  1  0
  5 22  1  0
  6 23  1  0
  8 24  1  0
  8 25  1  0
  9 26  1  0
  9 27  1  0
 11 28  1  0
 12 29  1  0
 18 30  1  0
 19 31  1  0
M  RAD  1   1   3
M  END
$$$$
