
     RDKit          3D

 31 32  0  0  0  0  0  0  0  0999 V2000
   -3.3441   -1.0272   -2.1059 N   0  0  0  0  0  1  0  0  0  0  0  0
   -3.0008   -0.5149   -0.8202 C   0  0  0  0  0  0  0  0  0  0  0  0
   -3.6567   -1.0146    0.3113 C   0  0  0  0  0  0  0  0  0  0  0  0
   -3.3300   -0.5374    1.5828 C   0  0  0  0  0  0  0  0  0  0  0  0
   -2.3453    0.4412    1.7306 C   0  0  0  0  0  0  0  0  0  0  0  0
   -1.6868    0.9475    0.6072 C   0  0  0  0  0  0  0  0  0  0  0  0
   -2.0104    0.4805   -0.6793 C   0  0  0  0  0  0  0  0  0  0  0  0
   -1.2504    1.0061   -1.8756 C   0  0  0  0  0  0  0  0  0  0  0  0
   -0.1080    0.0659   -2.2864 C   0  0  0  0  0  0  0  0  0  0  0  0
    0.9384   -0.0483   -1.2071 C   0  0  0  0  0  0  0  0  0  0  0  0
    0.9126   -1.1229   -0.3048 C   0  0  0  0  0  0  0  0  0  0  0  0
    1.8511   -1.2008    0.7277 C   0  0  0  0  0  0  0  0  0  0  0  0
    2.8410   -0.2127    0.8671 C   0  0  0  0  0  0  0  0  0  0  0  0
    3.8194   -0.2689    2.0130 C   0  0  0  0  0  0  0  0  0  0  0  0
    3.2763    0.3786    3.1069 F   0  0  0  0  0  0  0  0  0  0  0  0
    4.0946   -1.5813    2.3565 F   0  0  0  0  0  0  0  0  0  0  0  0
    5.0105    0.3469    1.6696 F   0  0  0  0  0  0  0  0  0  0  0  0
    2.8435    0.8791   -0.0183 C   0  0  0  0  0  0  0  0  0  0  0  0
    1.9035    0.9573   -1.0498 C   0  0  0  0  0  0  0  0  0  0  0  0
   -4.4183   -1.7771    0.2060 H   0  0  0  0  0  0  0  0  0  0  0  0
   -3.8381   -0.9290    2.4545 H   0  0  0  0  0  0  0  0  0  0  0  0
   -2.0887    0.8051    2.7171 H   0  0  0  0  0  0  0  0  0  0  0  0
   -0.9160    1.6966    0.7411 H   0  0  0  0  0  0  0  0  0  0  0  0
   -0.8405    2.0178   -1.6611 H   0  0  0  0  0  0  0  0  0  0  0  0
   -1.9450    1.1279   -2.7345 H   0  0  0  0  0  0  0  0  0  0  0  0
   -0.5167   -0.9371   -2.5387 H   0  0  0  0  0  0  0  0  0  0  0  0
    0.3640    0.4595   -3.2128 H   0  0  0  0  0  0  0  0  0  0  0  0
    0.1547   -1.8919   -0.3905 H   0  0  0  0  0  0  0  0  0  0  0  0
    1.7985   -2.0302    1.4218 H   0  0  0  0  0  0  0  0  0  0  0  0
    3.5680    1.6762    0.0915 H   0  0  0  0  0  0  0  0  0  0  0  0
    1.9199    1.8083   -1.7195 H   0  0  0  0  0  0  0  0  0  0  0  0
  1  2  1  0
  2  3  2  0
  3  4  1  0
  4  5  2  0
  5  6  1  0
  6  7  2  0
  7  8  1  0
  8  9  1  0
  9 10  1  0
 10 11  1  0
 11 12  2  0
 12 13  1  0
 13 14  1  0
 14 15  1  0
 14 16  1  0
 14 17  1  0
 13 18  2  0
 18 19  1  0
  7  2  1  0
 19 10  2  0
  3 20  1  0
  4 21  1  0
  5 22  1  0
  6 23  1  0
  8 24  1  0
  8 25  1  0
  9 26  1  0
  9 27  1  0
 11 28  1  0
 12 29  1  0
 18 30  1  0
 19 31  1  0
M  RAD  1   1   3
M  END
$$$$
