
     RDKit          3D

 31 32  0  0  0  0  0  0  0  0999 V2000
   -2.5498    0.3306   -2.4647 N   0  0  0  0  0  1  0  0  0  0  0  0
   -3.2252    0.0765   -1.2347 C   0  0  0  0  0  0  0  0  0  0  0  0
   -4.6046    0.3028   -1.1541 C   0  0  0  0  0  0  0  0  0  0  0  0
   -5.2866    0.0761    0.0437 C   0  0  0  0  0  0  0  0  0  0  0  0
   -4.5928   -0.3735    1.1689 C   0  0  0  0  0  0  0  0  0  0  0  0
   -3.2160   -0.6024    1.0981 C   0  0  0  0  0  0  0  0  0  0  0  0
   -2.5202   -0.3928   -0.1055 C   0  0  0  0  0  0  0  0  0  0  0  0
   -1.0284   -0.6152   -0.1493 C   0  0  0  0  0  0  0  0  0  0  0  0
   -0.2798    0.6835    0.1655 C   0  0  0  0  0  0  0  0  0  0  0  0
    1.2080    0.4612    0.1174 C   0  0  0  0  0  0  0  0  0  0  0  0
    1.9074    0.6120   -1.0893 C   0  0  0  0  0  0  0  0  0  0  0  0
    3.2840    0.3748   -1.1421 C   0  0  0  0  0  0  0  0  0  0  0  0
    3.9794   -0.0453    0.0051 C   0  0  0  0  0  0  0  0  0  0  0  0
    5.4723   -0.2538   -0.0401 C   0  0  0  0  0  0  0  0  0  0  0  0
    5.8677   -0.6875   -1.2938 F   0  0  0  0  0  0  0  0  0  0  0  0
    6.1072    0.9407    0.2442 F   0  0  0  0  0  0  0  0  0  0  0  0
    5.8617   -1.2037    0.8884 F   0  0  0  0  0  0  0  0  0  0  0  0
    3.2775   -0.1830    1.2153 C   0  0  0  0  0  0  0  0  0  0  0  0
    1.9009    0.0544    1.2673 C   0  0  0  0  0  0  0  0  0  0  0  0
   -5.1489    0.6588   -2.0199 H   0  0  0  0  0  0  0  0  0  0  0  0
   -6.3527    0.2540    0.1012 H   0  0  0  0  0  0  0  0  0  0  0  0
   -5.1216   -0.5417    2.0982 H   0  0  0  0  0  0  0  0  0  0  0  0
   -2.6913   -0.9421    1.9827 H   0  0  0  0  0  0  0  0  0  0  0  0
   -0.7414   -1.3971    0.5884 H   0  0  0  0  0  0  0  0  0  0  0  0
   -0.7277   -0.9926   -1.1511 H   0  0  0  0  0  0  0  0  0  0  0  0
   -0.5738    1.0497    1.1741 H   0  0  0  0  0  0  0  0  0  0  0  0
   -0.5658    1.4702   -0.5671 H   0  0  0  0  0  0  0  0  0  0  0  0
    1.3871    0.9174   -1.9888 H   0  0  0  0  0  0  0  0  0  0  0  0
    3.8046    0.5186   -2.0806 H   0  0  0  0  0  0  0  0  0  0  0  0
    3.7930   -0.4756    2.1214 H   0  0  0  0  0  0  0  0  0  0  0  0
    1.3756   -0.0750    2.2056 H   0  0  0  0  0  0  0  0  0  0  0  0
  1  2  1  0
  2  3  2  0
  3  4  1  0
  4  5  2  0
  5  6  1  0
  6  7  2  0
  7  8  1  0
  8  9  1  0
  9 10  1  0
 10 11  1  0
 11 12  2  0
 12 13  1  0
 13 14  1  0
 14 15  1  0
 14 16  1  0
 14 17  1  0
 13 18  2  0
 18 19  1  0
  7  2  1  0
 19 10  2  0
  3 20  1  0
  4 21  1  0
  5 22  1  0
  6 23  1  0
  8 24  1  0
  8 25  1  0
  9 26  1  0
  9 27  1  0
 11 28  1  0
 12 29  1  0
 18 30  1  0
 19 31  1  0
M  RAD  1   1   3
M  END
$$$$
