
     RDKit          3D

 31 32  0  0  0  0  0  0  0  0999 V2000
   -3.2860   -1.6004    1.8205 N   0  0  0  0  0  1  0  0  0  0  0  0
   -2.9574   -0.5030    0.9713 C   0  0  0  0  0  0  0  0  0  0  0  0
   -3.5260    0.7510    1.2252 C   0  0  0  0  0  0  0  0  0  0  0  0
   -3.2108    1.8443    0.4149 C   0  0  0  0  0  0  0  0  0  0  0  0
   -2.3250    1.6906   -0.6531 C   0  0  0  0  0  0  0  0  0  0  0  0
   -1.7542    0.4427   -0.9157 C   0  0  0  0  0  0  0  0  0  0  0  0
   -2.0678   -0.6678   -0.1117 C   0  0  0  0  0  0  0  0  0  0  0  0
   -1.4001   -1.9965   -0.3835 C   0  0  0  0  0  0  0  0  0  0  0  0
   -0.1823   -2.2216    0.5241 C   0  0  0  0  0  0  0  0  0  0  0  0
    0.9021   -1.2060    0.2679 C   0  0  0  0  0  0  0  0  0  0  0  0
    1.7661   -1.3562   -0.8268 C   0  0  0  0  0  0  0  0  0  0  0  0
    2.7395   -0.3900   -1.0962 C   0  0  0  0  0  0  0  0  0  0  0  0
    2.8727    0.7379   -0.2679 C   0  0  0  0  0  0  0  0  0  0  0  0
    3.8855    1.8073   -0.5907 C   0  0  0  0  0  0  0  0  0  0  0  0
    4.9983    1.2576   -1.2036 F   0  0  0  0  0  0  0  0  0  0  0  0
    4.3007    2.4509    0.5622 F   0  0  0  0  0  0  0  0  0  0  0  0
    3.3133    2.7334   -1.4426 F   0  0  0  0  0  0  0  0  0  0  0  0
    1.9828    0.9024    0.8077 C   0  0  0  0  0  0  0  0  0  0  0  0
    1.0108   -0.0648    1.0773 C   0  0  0  0  0  0  0  0  0  0  0  0
   -4.2103    0.8799    2.0544 H   0  0  0  0  0  0  0  0  0  0  0  0
   -3.6510    2.8122    0.6172 H   0  0  0  0  0  0  0  0  0  0  0  0
   -2.0767    2.5402   -1.2759 H   0  0  0  0  0  0  0  0  0  0  0  0
   -1.0585    0.3442   -1.7400 H   0  0  0  0  0  0  0  0  0  0  0  0
   -2.1288   -2.8199   -0.2218 H   0  0  0  0  0  0  0  0  0  0  0  0
   -1.0873   -2.0629   -1.4490 H   0  0  0  0  0  0  0  0  0  0  0  0
    0.2201   -3.2410    0.3370 H   0  0  0  0  0  0  0  0  0  0  0  0
   -0.4960   -2.1941    1.5906 H   0  0  0  0  0  0  0  0  0  0  0  0
    1.6772   -2.2164   -1.4789 H   0  0  0  0  0  0  0  0  0  0  0  0
    3.3836   -0.5212   -1.9566 H   0  0  0  0  0  0  0  0  0  0  0  0
    2.0341    1.7827    1.4360 H   0  0  0  0  0  0  0  0  0  0  0  0
    0.3314    0.0846    1.9075 H   0  0  0  0  0  0  0  0  0  0  0  0
  1  2  1  0
  2  3  2  0
  3  4  1  0
  4  5  2  0
  5  6  1  0
  6  7  2  0
  7  8  1  0
  8  9  1  0
  9 10  1  0
 10 11  1  0
 11 12  2  0
 12 13  1  0
 13 14  1  0
 14 15  1  0
 14 16  1  0
 14 17  1  0
 13 18  2  0
 18 19  1  0
  7  2  1  0
 19 10  2  0
  3 20  1  0
  4 21  1  0
  5 22  1  0
  6 23  1  0
  8 24  1  0
  8 25  1  0
  9 26  1  0
  9 27  1  0
 11 28  1  0
 12 29  1  0
 18 30  1  0
 19 31  1  0
M  RAD  1   1   3
M  END
$$$$
