
     RDKit          3D

 31 32  0  0  0  0  0  0  0  0999 V2000
   -2.4610    2.5470    0.3597 N   0  0  0  0  0  1  0  0  0  0  0  0
   -3.1820    1.3285    0.1893 C   0  0  0  0  0  0  0  0  0  0  0  0
   -4.5513    1.3801   -0.0984 C   0  0  0  0  0  0  0  0  0  0  0  0
   -5.2766    0.2010   -0.2850 C   0  0  0  0  0  0  0  0  0  0  0  0
   -4.6364   -1.0361   -0.1897 C   0  0  0  0  0  0  0  0  0  0  0  0
   -3.2701   -1.0978    0.0973 C   0  0  0  0  0  0  0  0  0  0  0  0
   -2.5316    0.0809    0.3024 C   0  0  0  0  0  0  0  0  0  0  0  0
   -1.0508   -0.0091    0.5787 C   0  0  0  0  0  0  0  0  0  0  0  0
   -0.2528    0.0693   -0.7263 C   0  0  0  0  0  0  0  0  0  0  0  0
    1.2240   -0.0163   -0.4488 C   0  0  0  0  0  0  0  0  0  0  0  0
    1.8649   -1.2633   -0.4019 C   0  0  0  0  0  0  0  0  0  0  0  0
    3.2300   -1.3454   -0.1127 C   0  0  0  0  0  0  0  0  0  0  0  0
    3.9714   -0.1833    0.1628 C   0  0  0  0  0  0  0  0  0  0  0  0
    5.4538   -0.2675    0.4265 C   0  0  0  0  0  0  0  0  0  0  0  0
    5.8642    0.7691    1.2471 F   0  0  0  0  0  0  0  0  0  0  0  0
    6.1345   -0.1881   -0.7739 F   0  0  0  0  0  0  0  0  0  0  0  0
    5.7729   -1.4626    1.0477 F   0  0  0  0  0  0  0  0  0  0  0  0
    3.3287    1.0655    0.1024 C   0  0  0  0  0  0  0  0  0  0  0  0
    1.9635    1.1467   -0.1869 C   0  0  0  0  0  0  0  0  0  0  0  0
   -5.0539    2.3357   -0.1817 H   0  0  0  0  0  0  0  0  0  0  0  0
   -6.3347    0.2464   -0.5087 H   0  0  0  0  0  0  0  0  0  0  0  0
   -5.1985   -1.9485   -0.3417 H   0  0  0  0  0  0  0  0  0  0  0  0
   -2.7868   -2.0652    0.1584 H   0  0  0  0  0  0  0  0  0  0  0  0
   -0.8211   -0.9663    1.0974 H   0  0  0  0  0  0  0  0  0  0  0  0
   -0.7395    0.8101    1.2631 H   0  0  0  0  0  0  0  0  0  0  0  0
   -0.4815    1.0230   -1.2511 H   0  0  0  0  0  0  0  0  0  0  0  0
   -0.5580   -0.7602   -1.4020 H   0  0  0  0  0  0  0  0  0  0  0  0
    1.3078   -2.1723   -0.5934 H   0  0  0  0  0  0  0  0  0  0  0  0
    3.7058   -2.3180   -0.1033 H   0  0  0  0  0  0  0  0  0  0  0  0
    3.8816    1.9793    0.2801 H   0  0  0  0  0  0  0  0  0  0  0  0
    1.4833    2.1173   -0.2107 H   0  0  0  0  0  0  0  0  0  0  0  0
  1  2  1  0
  2  3  2  0
  3  4  1  0
  4  5  2  0
  5  6  1  0
  6  7  2  0
  7  8  1  0
  8  9  1  0
  9 10  1  0
 10 11  1  0
 11 12  2  0
 12 13  1  0
 13 14  1  0
 14 15  1  0
 14 16  1  0
 14 17  1  0
 13 18  2  0
 18 19  1  0
  7  2  1  0
 19 10  2  0
  3 20  1  0
  4 21  1  0
  5 22  1  0
  6 23  1  0
  8 24  1  0
  8 25  1  0
  9 26  1  0
  9 27  1  0
 11 28  1  0
 12 29  1  0
 18 30  1  0
 19 31  1  0
M  RAD  1   1   3
M  END
$$$$
