
     RDKit          3D

 31 32  0  0  0  0  0  0  0  0999 V2000
   -3.4396   -0.8307   -2.2104 N   0  0  0  0  0  1  0  0  0  0  0  0
   -3.0305   -0.5018   -0.8846 C   0  0  0  0  0  0  0  0  0  0  0  0
   -3.7845    0.4180   -0.1458 C   0  0  0  0  0  0  0  0  0  0  0  0
   -3.3979    0.7657    1.1507 C   0  0  0  0  0  0  0  0  0  0  0  0
   -2.2551    0.1966    1.7157 C   0  0  0  0  0  0  0  0  0  0  0  0
   -1.4975   -0.7239    0.9871 C   0  0  0  0  0  0  0  0  0  0  0  0
   -1.8790   -1.0875   -0.3167 C   0  0  0  0  0  0  0  0  0  0  0  0
   -1.0169   -2.0471   -1.1049 C   0  0  0  0  0  0  0  0  0  0  0  0
   -0.0567   -1.3103   -2.0498 C   0  0  0  0  0  0  0  0  0  0  0  0
    0.9339   -0.4632   -1.2921 C   0  0  0  0  0  0  0  0  0  0  0  0
    2.0622   -1.0526   -0.7030 C   0  0  0  0  0  0  0  0  0  0  0  0
    2.9555   -0.2782    0.0427 C   0  0  0  0  0  0  0  0  0  0  0  0
    2.7411    1.1018    0.2025 C   0  0  0  0  0  0  0  0  0  0  0  0
    3.6742    1.9262    1.0529 C   0  0  0  0  0  0  0  0  0  0  0  0
    4.9625    1.4235    0.9935 F   0  0  0  0  0  0  0  0  0  0  0  0
    3.7020    3.2393    0.6157 F   0  0  0  0  0  0  0  0  0  0  0  0
    3.2392    1.8972    2.3647 F   0  0  0  0  0  0  0  0  0  0  0  0
    1.5914    1.6824   -0.3602 C   0  0  0  0  0  0  0  0  0  0  0  0
    0.6995    0.9080   -1.1070 C   0  0  0  0  0  0  0  0  0  0  0  0
   -4.6695    0.8677   -0.5784 H   0  0  0  0  0  0  0  0  0  0  0  0
   -3.9827    1.4793    1.7165 H   0  0  0  0  0  0  0  0  0  0  0  0
   -1.9532    0.4720    2.7179 H   0  0  0  0  0  0  0  0  0  0  0  0
   -0.6063   -1.1455    1.4357 H   0  0  0  0  0  0  0  0  0  0  0  0
   -0.4345   -2.6997   -0.4175 H   0  0  0  0  0  0  0  0  0  0  0  0
   -1.6638   -2.7245   -1.7028 H   0  0  0  0  0  0  0  0  0  0  0  0
    0.4938   -2.0611   -2.6574 H   0  0  0  0  0  0  0  0  0  0  0  0
   -0.6358   -0.6852   -2.7643 H   0  0  0  0  0  0  0  0  0  0  0  0
    2.2431   -2.1149   -0.8116 H   0  0  0  0  0  0  0  0  0  0  0  0
    3.8102   -0.7600    0.5007 H   0  0  0  0  0  0  0  0  0  0  0  0
    1.3782    2.7343   -0.2165 H   0  0  0  0  0  0  0  0  0  0  0  0
   -0.1834    1.3742   -1.5267 H   0  0  0  0  0  0  0  0  0  0  0  0
  1  2  1  0
  2  3  2  0
  3  4  1  0
  4  5  2  0
  5  6  1  0
  6  7  2  0
  7  8  1  0
  8  9  1  0
  9 10  1  0
 10 11  1  0
 11 12  2  0
 12 13  1  0
 13 14  1  0
 14 15  1  0
 14 16  1  0
 14 17  1  0
 13 18  2  0
 18 19  1  0
  7  2  1  0
 19 10  2  0
  3 20  1  0
  4 21  1  0
  5 22  1  0
  6 23  1  0
  8 24  1  0
  8 25  1  0
  9 26  1  0
  9 27  1  0
 11 28  1  0
 12 29  1  0
 18 30  1  0
 19 31  1  0
M  RAD  1   1   3
M  END
$$$$
