
     RDKit          3D

 31 32  0  0  0  0  0  0  0  0999 V2000
   -2.4326    0.6752   -2.4523 N   0  0  0  0  0  1  0  0  0  0  0  0
   -3.1657    0.1995   -1.3253 C   0  0  0  0  0  0  0  0  0  0  0  0
   -4.5438    0.4375   -1.2577 C   0  0  0  0  0  0  0  0  0  0  0  0
   -5.2816   -0.0048   -0.1571 C   0  0  0  0  0  0  0  0  0  0  0  0
   -4.6452   -0.6833    0.8841 C   0  0  0  0  0  0  0  0  0  0  0  0
   -3.2701   -0.9258    0.8255 C   0  0  0  0  0  0  0  0  0  0  0  0
   -2.5186   -0.4994   -0.2835 C   0  0  0  0  0  0  0  0  0  0  0  0
   -1.0297   -0.7434   -0.3099 C   0  0  0  0  0  0  0  0  0  0  0  0
   -0.2768    0.4500    0.2858 C   0  0  0  0  0  0  0  0  0  0  0  0
    1.2082    0.2070    0.2551 C   0  0  0  0  0  0  0  0  0  0  0  0
    1.8434   -0.4343    1.3290 C   0  0  0  0  0  0  0  0  0  0  0  0
    3.2172   -0.6889    1.2871 C   0  0  0  0  0  0  0  0  0  0  0  0
    3.9741   -0.3318    0.1576 C   0  0  0  0  0  0  0  0  0  0  0  0
    5.4643   -0.5619    0.1327 C   0  0  0  0  0  0  0  0  0  0  0  0
    6.1035    0.5380    0.6733 F   0  0  0  0  0  0  0  0  0  0  0  0
    5.9086   -0.7492   -1.1648 F   0  0  0  0  0  0  0  0  0  0  0  0
    5.7980   -1.6850    0.8699 F   0  0  0  0  0  0  0  0  0  0  0  0
    3.3367    0.3222   -0.9111 C   0  0  0  0  0  0  0  0  0  0  0  0
    1.9628    0.5763   -0.8684 C   0  0  0  0  0  0  0  0  0  0  0  0
   -5.0437    0.9697   -2.0573 H   0  0  0  0  0  0  0  0  0  0  0  0
   -6.3464    0.1830   -0.1089 H   0  0  0  0  0  0  0  0  0  0  0  0
   -5.2172   -1.0189    1.7395 H   0  0  0  0  0  0  0  0  0  0  0  0
   -2.7904   -1.4452    1.6460 H   0  0  0  0  0  0  0  0  0  0  0  0
   -0.7874   -1.6618    0.2696 H   0  0  0  0  0  0  0  0  0  0  0  0
   -0.6904   -0.9229   -1.3534 H   0  0  0  0  0  0  0  0  0  0  0  0
   -0.5182    1.3721   -0.2877 H   0  0  0  0  0  0  0  0  0  0  0  0
   -0.6098    0.6171    1.3341 H   0  0  0  0  0  0  0  0  0  0  0  0
    1.2750   -0.7338    2.2010 H   0  0  0  0  0  0  0  0  0  0  0  0
    3.6876   -1.1661    2.1376 H   0  0  0  0  0  0  0  0  0  0  0  0
    3.9005    0.6359   -1.7806 H   0  0  0  0  0  0  0  0  0  0  0  0
    1.4875    1.0650   -1.7101 H   0  0  0  0  0  0  0  0  0  0  0  0
  1  2  1  0
  2  3  2  0
  3  4  1  0
  4  5  2  0
  5  6  1  0
  6  7  2  0
  7  8  1  0
  8  9  1  0
  9 10  1  0
 10 11  1  0
 11 12  2  0
 12 13  1  0
 13 14  1  0
 14 15  1  0
 14 16  1  0
 14 17  1  0
 13 18  2  0
 18 19  1  0
  7  2  1  0
 19 10  2  0
  3 20  1  0
  4 21  1  0
  5 22  1  0
  6 23  1  0
  8 24  1  0
  8 25  1  0
  9 26  1  0
  9 27  1  0
 11 28  1  0
 12 29  1  0
 18 30  1  0
 19 31  1  0
M  RAD  1   1   3
M  END
$$$$
