
     RDKit          3D

 31 32  0  0  0  0  0  0  0  0999 V2000
   -3.5564   -1.3667   -1.5641 N   0  0  0  0  0  1  0  0  0  0  0  0
   -3.0827   -0.4799   -0.5530 C   0  0  0  0  0  0  0  0  0  0  0  0
   -3.7224    0.7521   -0.3709 C   0  0  0  0  0  0  0  0  0  0  0  0
   -3.2699    1.6432    0.6051 C   0  0  0  0  0  0  0  0  0  0  0  0
   -2.1750    1.3082    1.4039 C   0  0  0  0  0  0  0  0  0  0  0  0
   -1.5315    0.0802    1.2311 C   0  0  0  0  0  0  0  0  0  0  0  0
   -1.9807   -0.8289    0.2566 C   0  0  0  0  0  0  0  0  0  0  0  0
   -1.2386   -2.1301    0.0533 C   0  0  0  0  0  0  0  0  0  0  0  0
   -0.2348   -2.0418   -1.1052 C   0  0  0  0  0  0  0  0  0  0  0  0
    0.8542   -1.0370   -0.8267 C   0  0  0  0  0  0  0  0  0  0  0  0
    1.9332   -1.3765    0.0026 C   0  0  0  0  0  0  0  0  0  0  0  0
    2.9178   -0.4311    0.3033 C   0  0  0  0  0  0  0  0  0  0  0  0
    2.8456    0.8675   -0.2300 C   0  0  0  0  0  0  0  0  0  0  0  0
    3.8775    1.9032    0.1391 C   0  0  0  0  0  0  0  0  0  0  0  0
    5.1077    1.3094    0.3633 F   0  0  0  0  0  0  0  0  0  0  0  0
    4.0242    2.8308   -0.8778 F   0  0  0  0  0  0  0  0  0  0  0  0
    3.4757    2.5556    1.2896 F   0  0  0  0  0  0  0  0  0  0  0  0
    1.7451    1.2144   -1.0325 C   0  0  0  0  0  0  0  0  0  0  0  0
    0.7618    0.2682   -1.3340 C   0  0  0  0  0  0  0  0  0  0  0  0
   -4.5693    1.0218   -0.9895 H   0  0  0  0  0  0  0  0  0  0  0  0
   -3.7663    2.5955    0.7398 H   0  0  0  0  0  0  0  0  0  0  0  0
   -1.8216    2.0026    2.1551 H   0  0  0  0  0  0  0  0  0  0  0  0
   -0.6753   -0.1579    1.8503 H   0  0  0  0  0  0  0  0  0  0  0  0
   -0.7064   -2.4229    0.9852 H   0  0  0  0  0  0  0  0  0  0  0  0
   -1.9648   -2.9442   -0.1587 H   0  0  0  0  0  0  0  0  0  0  0  0
    0.2227   -3.0432   -1.2595 H   0  0  0  0  0  0  0  0  0  0  0  0
   -0.7672   -1.7864   -2.0475 H   0  0  0  0  0  0  0  0  0  0  0  0
    2.0050   -2.3707    0.4262 H   0  0  0  0  0  0  0  0  0  0  0  0
    3.7321   -0.7133    0.9589 H   0  0  0  0  0  0  0  0  0  0  0  0
    1.6411    2.2197   -1.4211 H   0  0  0  0  0  0  0  0  0  0  0  0
   -0.0810    0.5582   -1.9494 H   0  0  0  0  0  0  0  0  0  0  0  0
  1  2  1  0
  2  3  2  0
  3  4  1  0
  4  5  2  0
  5  6  1  0
  6  7  2  0
  7  8  1  0
  8  9  1  0
  9 10  1  0
 10 11  1  0
 11 12  2  0
 12 13  1  0
 13 14  1  0
 14 15  1  0
 14 16  1  0
 14 17  1  0
 13 18  2  0
 18 19  1  0
  7  2  1  0
 19 10  2  0
  3 20  1  0
  4 21  1  0
  5 22  1  0
  6 23  1  0
  8 24  1  0
  8 25  1  0
  9 26  1  0
  9 27  1  0
 11 28  1  0
 12 29  1  0
 18 30  1  0
 19 31  1  0
M  RAD  1   1   3
M  END
$$$$
