
     RDKit          3D

 31 32  0  0  0  0  0  0  0  0999 V2000
   -2.6894    1.5941    1.6944 N   0  0  0  0  0  1  0  0  0  0  0  0
   -3.2899    0.7981    0.6749 C   0  0  0  0  0  0  0  0  0  0  0  0
   -4.6343    1.0106    0.3461 C   0  0  0  0  0  0  0  0  0  0  0  0
   -5.2413    0.2546   -0.6595 C   0  0  0  0  0  0  0  0  0  0  0  0
   -4.5068   -0.7147   -1.3452 C   0  0  0  0  0  0  0  0  0  0  0  0
   -3.1645   -0.9342   -1.0241 C   0  0  0  0  0  0  0  0  0  0  0  0
   -2.5457   -0.1908   -0.0038 C   0  0  0  0  0  0  0  0  0  0  0  0
   -1.0865   -0.4223    0.3033 C   0  0  0  0  0  0  0  0  0  0  0  0
   -0.2058    0.5259   -0.5160 C   0  0  0  0  0  0  0  0  0  0  0  0
    1.2490    0.2967   -0.2057 C   0  0  0  0  0  0  0  0  0  0  0  0
    1.8662    0.9903    0.8461 C   0  0  0  0  0  0  0  0  0  0  0  0
    3.2088    0.7548    1.1556 C   0  0  0  0  0  0  0  0  0  0  0  0
    3.9492   -0.1997    0.4366 C   0  0  0  0  0  0  0  0  0  0  0  0
    5.4105   -0.4184    0.7382 C   0  0  0  0  0  0  0  0  0  0  0  0
    5.7842   -1.7156    0.4319 F   0  0  0  0  0  0  0  0  0  0  0  0
    5.6710   -0.1992    2.0799 F   0  0  0  0  0  0  0  0  0  0  0  0
    6.1670    0.4583   -0.0166 F   0  0  0  0  0  0  0  0  0  0  0  0
    3.3311   -0.8834   -0.6248 C   0  0  0  0  0  0  0  0  0  0  0  0
    1.9884   -0.6473   -0.9337 C   0  0  0  0  0  0  0  0  0  0  0  0
   -5.2090    1.7657    0.8679 H   0  0  0  0  0  0  0  0  0  0  0  0
   -6.2804    0.4238   -0.9108 H   0  0  0  0  0  0  0  0  0  0  0  0
   -4.9768   -1.2946   -2.1290 H   0  0  0  0  0  0  0  0  0  0  0  0
   -2.6064   -1.6834   -1.5722 H   0  0  0  0  0  0  0  0  0  0  0  0
   -0.8143   -1.4757    0.0705 H   0  0  0  0  0  0  0  0  0  0  0  0
   -0.8962   -0.2734    1.3886 H   0  0  0  0  0  0  0  0  0  0  0  0
   -0.4762    1.5810   -0.2899 H   0  0  0  0  0  0  0  0  0  0  0  0
   -0.3898    0.3637   -1.6012 H   0  0  0  0  0  0  0  0  0  0  0  0
    1.3083    1.7167    1.4241 H   0  0  0  0  0  0  0  0  0  0  0  0
    3.6679    1.3182    1.9582 H   0  0  0  0  0  0  0  0  0  0  0  0
    3.8859   -1.6018   -1.2153 H   0  0  0  0  0  0  0  0  0  0  0  0
    1.5259   -1.1980   -1.7437 H   0  0  0  0  0  0  0  0  0  0  0  0
  1  2  1  0
  2  3  2  0
  3  4  1  0
  4  5  2  0
  5  6  1  0
  6  7  2  0
  7  8  1  0
  8  9  1  0
  9 10  1  0
 10 11  1  0
 11 12  2  0
 12 13  1  0
 13 14  1  0
 14 15  1  0
 14 16  1  0
 14 17  1  0
 13 18  2  0
 18 19  1  0
  7  2  1  0
 19 10  2  0
  3 20  1  0
  4 21  1  0
  5 22  1  0
  6 23  1  0
  8 24  1  0
  8 25  1  0
  9 26  1  0
  9 27  1  0
 11 28  1  0
 12 29  1  0
 18 30  1  0
 19 31  1  0
M  RAD  1   1   3
M  END
$$$$
