
     RDKit          3D

 31 32  0  0  0  0  0  0  0  0999 V2000
   -2.4531   -2.2411    1.2830 N   0  0  0  0  0  1  0  0  0  0  0  0
   -3.1661   -1.0805    0.8609 C   0  0  0  0  0  0  0  0  0  0  0  0
   -4.5587   -1.1447    0.7308 C   0  0  0  0  0  0  0  0  0  0  0  0
   -5.2785   -0.0261    0.3042 C   0  0  0  0  0  0  0  0  0  0  0  0
   -4.6098    1.1614    0.0008 C   0  0  0  0  0  0  0  0  0  0  0  0
   -3.2200    1.2353    0.1278 C   0  0  0  0  0  0  0  0  0  0  0  0
   -2.4852    0.1215    0.5707 C   0  0  0  0  0  0  0  0  0  0  0  0
   -0.9823    0.2145    0.6688 C   0  0  0  0  0  0  0  0  0  0  0  0
   -0.3270   -0.2443   -0.6373 C   0  0  0  0  0  0  0  0  0  0  0  0
    1.1720   -0.1549   -0.5366 C   0  0  0  0  0  0  0  0  0  0  0  0
    1.9142   -1.2385   -0.0436 C   0  0  0  0  0  0  0  0  0  0  0  0
    3.3034   -1.1450    0.0803 C   0  0  0  0  0  0  0  0  0  0  0  0
    3.9709    0.0444   -0.2599 C   0  0  0  0  0  0  0  0  0  0  0  0
    5.4741    0.1285   -0.1726 C   0  0  0  0  0  0  0  0  0  0  0  0
    5.8777    1.4302    0.0703 F   0  0  0  0  0  0  0  0  0  0  0  0
    5.9498   -0.6698    0.8533 F   0  0  0  0  0  0  0  0  0  0  0  0
    6.0236   -0.2980   -1.3671 F   0  0  0  0  0  0  0  0  0  0  0  0
    3.2255    1.1236   -0.7656 C   0  0  0  0  0  0  0  0  0  0  0  0
    1.8363    1.0294   -0.8892 C   0  0  0  0  0  0  0  0  0  0  0  0
   -5.0842   -2.0642    0.9567 H   0  0  0  0  0  0  0  0  0  0  0  0
   -6.3548   -0.0814    0.2039 H   0  0  0  0  0  0  0  0  0  0  0  0
   -5.1684    2.0250   -0.3365 H   0  0  0  0  0  0  0  0  0  0  0  0
   -2.7159    2.1611   -0.1206 H   0  0  0  0  0  0  0  0  0  0  0  0
   -0.6825    1.2638    0.8859 H   0  0  0  0  0  0  0  0  0  0  0  0
   -0.6156   -0.4063    1.5152 H   0  0  0  0  0  0  0  0  0  0  0  0
   -0.6264   -1.2919   -0.8614 H   0  0  0  0  0  0  0  0  0  0  0  0
   -0.6866    0.3885   -1.4789 H   0  0  0  0  0  0  0  0  0  0  0  0
    1.4170   -2.1577    0.2412 H   0  0  0  0  0  0  0  0  0  0  0  0
    3.8556   -2.0027    0.4435 H   0  0  0  0  0  0  0  0  0  0  0  0
    3.7168    2.0411   -1.0643 H   0  0  0  0  0  0  0  0  0  0  0  0
    1.2785    1.8789   -1.2639 H   0  0  0  0  0  0  0  0  0  0  0  0
  1  2  1  0
  2  3  2  0
  3  4  1  0
  4  5  2  0
  5  6  1  0
  6  7  2  0
  7  8  1  0
  8  9  1  0
  9 10  1  0
 10 11  1  0
 11 12  2  0
 12 13  1  0
 13 14  1  0
 14 15  1  0
 14 16  1  0
 14 17  1  0
 13 18  2  0
 18 19  1  0
  7  2  1  0
 19 10  2  0
  3 20  1  0
  4 21  1  0
  5 22  1  0
  6 23  1  0
  8 24  1  0
  8 25  1  0
  9 26  1  0
  9 27  1  0
 11 28  1  0
 12 29  1  0
 18 30  1  0
 19 31  1  0
M  RAD  1   1   3
M  END
$$$$
