
     RDKit          3D

 31 32  0  0  0  0  0  0  0  0999 V2000
   -3.2397   -0.9300   -2.2976 N   0  0  0  0  0  1  0  0  0  0  0  0
   -2.9571   -0.3246   -1.0379 C   0  0  0  0  0  0  0  0  0  0  0  0
   -3.6550    0.8299   -0.6633 C   0  0  0  0  0  0  0  0  0  0  0  0
   -3.3881    1.4483    0.5604 C   0  0  0  0  0  0  0  0  0  0  0  0
   -2.4217    0.9167    1.4162 C   0  0  0  0  0  0  0  0  0  0  0  0
   -1.7216   -0.2363    1.0522 C   0  0  0  0  0  0  0  0  0  0  0  0
   -1.9849   -0.8725   -0.1741 C   0  0  0  0  0  0  0  0  0  0  0  0
   -1.1806   -2.0898   -0.5696 C   0  0  0  0  0  0  0  0  0  0  0  0
   -0.0113   -1.7270   -1.4964 C   0  0  0  0  0  0  0  0  0  0  0  0
    0.9894   -0.8318   -0.8107 C   0  0  0  0  0  0  0  0  0  0  0  0
    0.9373    0.5590   -0.9905 C   0  0  0  0  0  0  0  0  0  0  0  0
    1.8318    1.3927   -0.3139 C   0  0  0  0  0  0  0  0  0  0  0  0
    2.8037    0.8486    0.5434 C   0  0  0  0  0  0  0  0  0  0  0  0
    3.7329    1.7518    1.3143 C   0  0  0  0  0  0  0  0  0  0  0  0
    4.9307    1.1102    1.5786 F   0  0  0  0  0  0  0  0  0  0  0  0
    3.1366    2.1035    2.5107 F   0  0  0  0  0  0  0  0  0  0  0  0
    4.0080    2.9005    0.5925 F   0  0  0  0  0  0  0  0  0  0  0  0
    2.8316   -0.5421    0.7465 C   0  0  0  0  0  0  0  0  0  0  0  0
    1.9356   -1.3752    0.0707 C   0  0  0  0  0  0  0  0  0  0  0  0
   -4.4028    1.2515   -1.3234 H   0  0  0  0  0  0  0  0  0  0  0  0
   -3.9285    2.3422    0.8440 H   0  0  0  0  0  0  0  0  0  0  0  0
   -2.2114    1.4008    2.3612 H   0  0  0  0  0  0  0  0  0  0  0  0
   -0.9657   -0.6275    1.7220 H   0  0  0  0  0  0  0  0  0  0  0  0
   -0.7916   -2.6084    0.3344 H   0  0  0  0  0  0  0  0  0  0  0  0
   -1.8393   -2.8198   -1.0874 H   0  0  0  0  0  0  0  0  0  0  0  0
    0.4953   -2.6633   -1.8168 H   0  0  0  0  0  0  0  0  0  0  0  0
   -0.3976   -1.2421   -2.4196 H   0  0  0  0  0  0  0  0  0  0  0  0
    0.1924    0.9994   -1.6418 H   0  0  0  0  0  0  0  0  0  0  0  0
    1.7589    2.4637   -0.4555 H   0  0  0  0  0  0  0  0  0  0  0  0
    3.5418   -0.9847    1.4336 H   0  0  0  0  0  0  0  0  0  0  0  0
    1.9709   -2.4438    0.2434 H   0  0  0  0  0  0  0  0  0  0  0  0
  1  2  1  0
  2  3  2  0
  3  4  1  0
  4  5  2  0
  5  6  1  0
  6  7  2  0
  7  8  1  0
  8  9  1  0
  9 10  1  0
 10 11  1  0
 11 12  2  0
 12 13  1  0
 13 14  1  0
 14 15  1  0
 14 16  1  0
 14 17  1  0
 13 18  2  0
 18 19  1  0
  7  2  1  0
 19 10  2  0
  3 20  1  0
  4 21  1  0
  5 22  1  0
  6 23  1  0
  8 24  1  0
  8 25  1  0
  9 26  1  0
  9 27  1  0
 11 28  1  0
 12 29  1  0
 18 30  1  0
 19 31  1  0
M  RAD  1   1   3
M  END
$$$$
