
     RDKit          3D

 25 26  0  0  0  0  0  0  0  0999 V2000
   -1.6485   -1.6838   -2.1446 N   0  0  0  0  0  1  0  0  0  0  0  0
   -1.7655   -0.5882   -1.2394 C   0  0  0  0  0  0  0  0  0  0  0  0
   -2.5336    0.5228   -1.6080 C   0  0  0  0  0  0  0  0  0  0  0  0
   -2.6551    1.6131   -0.7434 C   0  0  0  0  0  0  0  0  0  0  0  0
   -2.0087    1.5995    0.4940 C   0  0  0  0  0  0  0  0  0  0  0  0
   -1.2415    0.4945    0.8715 C   0  0  0  0  0  0  0  0  0  0  0  0
   -1.1163   -0.6127    0.0134 C   0  0  0  0  0  0  0  0  0  0  0  0
   -0.2439   -1.7775    0.4224 C   0  0  0  0  0  0  0  0  0  0  0  0
    1.1590   -1.6853   -0.1935 C   0  0  0  0  0  0  0  0  0  0  0  0
    1.9098   -0.4849    0.3100 C   0  0  0  0  0  0  0  0  0  0  0  0
    1.9744    0.7307   -0.3896 C   0  0  0  0  0  0  0  0  0  0  0  0
    2.6688    1.7231    0.2868 C   0  0  0  0  0  0  0  0  0  0  0  0
    3.1885    1.0884    1.7535 S   0  0  0  0  0  0  0  0  0  0  0  0
    2.5437   -0.4493    1.5475 C   0  0  0  0  0  0  0  0  0  0  0  0
   -3.0344    0.5434   -2.5679 H   0  0  0  0  0  0  0  0  0  0  0  0
   -3.2480    2.4707   -1.0342 H   0  0  0  0  0  0  0  0  0  0  0  0
   -2.0987    2.4478    1.1601 H   0  0  0  0  0  0  0  0  0  0  0  0
   -0.7366    0.5059    1.8296 H   0  0  0  0  0  0  0  0  0  0  0  0
   -0.1606   -1.8306    1.5305 H   0  0  0  0  0  0  0  0  0  0  0  0
   -0.7182   -2.7294    0.1001 H   0  0  0  0  0  0  0  0  0  0  0  0
    1.0857   -1.6512   -1.3023 H   0  0  0  0  0  0  0  0  0  0  0  0
    1.7275   -2.6036    0.0687 H   0  0  0  0  0  0  0  0  0  0  0  0
    1.5165    0.8879   -1.3576 H   0  0  0  0  0  0  0  0  0  0  0  0
    2.8355    2.7317   -0.0661 H   0  0  0  0  0  0  0  0  0  0  0  0
    2.6000   -1.2629    2.2584 H   0  0  0  0  0  0  0  0  0  0  0  0
  1  2  1  0
  2  3  2  0
  3  4  1  0
  4  5  2  0
  5  6  1  0
  6  7  2  0
  7  8  1  0
  8  9  1  0
  9 10  1  0
 10 11  1  0
 11 12  2  0
 12 13  1  0
 13 14  1  0
  7  2  1  0
 14 10  2  0
  3 15  1  0
  4 16  1  0
  5 17  1  0
  6 18  1  0
  8 19  1  0
  8 20  1  0
  9 21  1  0
  9 22  1  0
 11 23  1  0
 12 24  1  0
 14 25  1  0
M  RAD  1   1   3
M  END
$$$$
