
     RDKit          3D

 25 26  0  0  0  0  0  0  0  0999 V2000
   -1.7055   -1.3664   -1.7657 N   0  0  0  0  0  1  0  0  0  0  0  0
   -2.1943   -0.5869   -0.6762 C   0  0  0  0  0  0  0  0  0  0  0  0
   -3.5304   -0.7276   -0.2817 C   0  0  0  0  0  0  0  0  0  0  0  0
   -4.0293    0.0134    0.7922 C   0  0  0  0  0  0  0  0  0  0  0  0
   -3.1944    0.8956    1.4808 C   0  0  0  0  0  0  0  0  0  0  0  0
   -1.8595    1.0429    1.0943 C   0  0  0  0  0  0  0  0  0  0  0  0
   -1.3487    0.3145    0.0057 C   0  0  0  0  0  0  0  0  0  0  0  0
    0.1042    0.4656   -0.3729 C   0  0  0  0  0  0  0  0  0  0  0  0
    0.9605   -0.5792    0.3481 C   0  0  0  0  0  0  0  0  0  0  0  0
    2.4043   -0.4293   -0.0307 C   0  0  0  0  0  0  0  0  0  0  0  0
    3.2916    0.4229    0.6451 C   0  0  0  0  0  0  0  0  0  0  0  0
    4.5660    0.4433    0.0966 C   0  0  0  0  0  0  0  0  0  0  0  0
    4.5783   -0.5852   -1.2326 S   0  0  0  0  0  0  0  0  0  0  0  0
    2.9730   -1.0698   -1.1267 C   0  0  0  0  0  0  0  0  0  0  0  0
   -4.1826   -1.4152   -0.8055 H   0  0  0  0  0  0  0  0  0  0  0  0
   -5.0625   -0.1001    1.0941 H   0  0  0  0  0  0  0  0  0  0  0  0
   -3.5808    1.4635    2.3172 H   0  0  0  0  0  0  0  0  0  0  0  0
   -1.2228    1.7245    1.6450 H   0  0  0  0  0  0  0  0  0  0  0  0
    0.4598    1.4856   -0.1057 H   0  0  0  0  0  0  0  0  0  0  0  0
    0.2253    0.3608   -1.4733 H   0  0  0  0  0  0  0  0  0  0  0  0
    0.8521   -0.4590    1.4486 H   0  0  0  0  0  0  0  0  0  0  0  0
    0.6126   -1.6016    0.0825 H   0  0  0  0  0  0  0  0  0  0  0  0
    3.0122    1.0133    1.5081 H   0  0  0  0  0  0  0  0  0  0  0  0
    5.4015    1.0273    0.4582 H   0  0  0  0  0  0  0  0  0  0  0  0
    2.4695   -1.7528   -1.7980 H   0  0  0  0  0  0  0  0  0  0  0  0
  1  2  1  0
  2  3  2  0
  3  4  1  0
  4  5  2  0
  5  6  1  0
  6  7  2  0
  7  8  1  0
  8  9  1  0
  9 10  1  0
 10 11  1  0
 11 12  2  0
 12 13  1  0
 13 14  1  0
  7  2  1  0
 14 10  2  0
  3 15  1  0
  4 16  1  0
  5 17  1  0
  6 18  1  0
  8 19  1  0
  8 20  1  0
  9 21  1  0
  9 22  1  0
 11 23  1  0
 12 24  1  0
 14 25  1  0
M  RAD  1   1   3
M  END
$$$$
