
     RDKit          3D

 25 26  0  0  0  0  0  0  0  0999 V2000
   -1.3253   -2.8899    0.2103 N   0  0  0  0  0  1  0  0  0  0  0  0
   -1.5188   -1.5300    0.5931 C   0  0  0  0  0  0  0  0  0  0  0  0
   -2.0797   -1.2460    1.8441 C   0  0  0  0  0  0  0  0  0  0  0  0
   -2.2696    0.0780    2.2466 C   0  0  0  0  0  0  0  0  0  0  0  0
   -1.8990    1.1256    1.4014 C   0  0  0  0  0  0  0  0  0  0  0  0
   -1.3403    0.8522    0.1503 C   0  0  0  0  0  0  0  0  0  0  0  0
   -1.1497   -0.4762   -0.2701 C   0  0  0  0  0  0  0  0  0  0  0  0
   -0.5011   -0.7487   -1.6081 C   0  0  0  0  0  0  0  0  0  0  0  0
    1.0012   -1.0305   -1.4685 C   0  0  0  0  0  0  0  0  0  0  0  0
    1.7461    0.1671   -0.9496 C   0  0  0  0  0  0  0  0  0  0  0  0
    2.0747    0.3409    0.4043 C   0  0  0  0  0  0  0  0  0  0  0  0
    2.7081    1.5462    0.6705 C   0  0  0  0  0  0  0  0  0  0  0  0
    2.8461    2.3927   -0.7747 S   0  0  0  0  0  0  0  0  0  0  0  0
    2.1093    1.2428   -1.7531 C   0  0  0  0  0  0  0  0  0  0  0  0
   -2.3656   -2.0526    2.5076 H   0  0  0  0  0  0  0  0  0  0  0  0
   -2.7012    0.2921    3.2157 H   0  0  0  0  0  0  0  0  0  0  0  0
   -2.0410    2.1510    1.7174 H   0  0  0  0  0  0  0  0  0  0  0  0
   -1.0468    1.6769   -0.4875 H   0  0  0  0  0  0  0  0  0  0  0  0
   -0.6556    0.1110   -2.2972 H   0  0  0  0  0  0  0  0  0  0  0  0
   -0.9899   -1.6238   -2.0879 H   0  0  0  0  0  0  0  0  0  0  0  0
    1.1637   -1.9008   -0.7962 H   0  0  0  0  0  0  0  0  0  0  0  0
    1.4091   -1.3062   -2.4650 H   0  0  0  0  0  0  0  0  0  0  0  0
    1.8459   -0.3862    1.1727 H   0  0  0  0  0  0  0  0  0  0  0  0
    3.0436    1.8839    1.6415 H   0  0  0  0  0  0  0  0  0  0  0  0
    1.9357    1.3305   -2.8174 H   0  0  0  0  0  0  0  0  0  0  0  0
  1  2  1  0
  2  3  2  0
  3  4  1  0
  4  5  2  0
  5  6  1  0
  6  7  2  0
  7  8  1  0
  8  9  1  0
  9 10  1  0
 10 11  1  0
 11 12  2  0
 12 13  1  0
 13 14  1  0
  7  2  1  0
 14 10  2  0
  3 15  1  0
  4 16  1  0
  5 17  1  0
  6 18  1  0
  8 19  1  0
  8 20  1  0
  9 21  1  0
  9 22  1  0
 11 23  1  0
 12 24  1  0
 14 25  1  0
M  RAD  1   1   3
M  END
$$$$
