
     RDKit          3D

 25 26  0  0  0  0  0  0  0  0999 V2000
    1.8165    1.9127    1.1948 N   0  0  0  0  0  1  0  0  0  0  0  0
    2.2379    0.7165    0.5428 C   0  0  0  0  0  0  0  0  0  0  0  0
    3.5776    0.5849    0.1576 C   0  0  0  0  0  0  0  0  0  0  0  0
    4.0121   -0.5706   -0.4962 C   0  0  0  0  0  0  0  0  0  0  0  0
    3.1090   -1.5988   -0.7727 C   0  0  0  0  0  0  0  0  0  0  0  0
    1.7699   -1.4767   -0.3919 C   0  0  0  0  0  0  0  0  0  0  0  0
    1.3228   -0.3256    0.2801 C   0  0  0  0  0  0  0  0  0  0  0  0
   -0.1343   -0.2019    0.6525 C   0  0  0  0  0  0  0  0  0  0  0  0
   -0.9167    0.5024   -0.4594 C   0  0  0  0  0  0  0  0  0  0  0  0
   -2.3648    0.6264   -0.0873 C   0  0  0  0  0  0  0  0  0  0  0  0
   -3.3175   -0.3660   -0.3661 C   0  0  0  0  0  0  0  0  0  0  0  0
   -4.5858   -0.0657    0.1101 C   0  0  0  0  0  0  0  0  0  0  0  0
   -4.5122    1.4228    0.8870 S   0  0  0  0  0  0  0  0  0  0  0  0
   -2.8764    1.7049    0.6267 C   0  0  0  0  0  0  0  0  0  0  0  0
    4.2829    1.3809    0.3614 H   0  0  0  0  0  0  0  0  0  0  0  0
    5.0485   -0.6668   -0.7932 H   0  0  0  0  0  0  0  0  0  0  0  0
    3.4459   -2.4903   -1.2858 H   0  0  0  0  0  0  0  0  0  0  0  0
    1.0804   -2.2796   -0.6224 H   0  0  0  0  0  0  0  0  0  0  0  0
   -0.5662   -1.2123    0.8277 H   0  0  0  0  0  0  0  0  0  0  0  0
   -0.2388    0.3621    1.6051 H   0  0  0  0  0  0  0  0  0  0  0  0
   -0.8259   -0.0745   -1.4060 H   0  0  0  0  0  0  0  0  0  0  0  0
   -0.4925    1.5150   -0.6370 H   0  0  0  0  0  0  0  0  0  0  0  0
   -3.0889   -1.2814   -0.8963 H   0  0  0  0  0  0  0  0  0  0  0  0
   -5.4647   -0.6873    0.0058 H   0  0  0  0  0  0  0  0  0  0  0  0
   -2.3190    2.5691    0.9629 H   0  0  0  0  0  0  0  0  0  0  0  0
  1  2  1  0
  2  3  2  0
  3  4  1  0
  4  5  2  0
  5  6  1  0
  6  7  2  0
  7  8  1  0
  8  9  1  0
  9 10  1  0
 10 11  1  0
 11 12  2  0
 12 13  1  0
 13 14  1  0
  7  2  1  0
 14 10  2  0
  3 15  1  0
  4 16  1  0
  5 17  1  0
  6 18  1  0
  8 19  1  0
  8 20  1  0
  9 21  1  0
  9 22  1  0
 11 23  1  0
 12 24  1  0
 14 25  1  0
M  RAD  1   1   3
M  END
$$$$
