
     RDKit          3D

 25 26  0  0  0  0  0  0  0  0999 V2000
   -1.5271   -2.3960    0.6504 N   0  0  0  0  0  1  0  0  0  0  0  0
   -2.1129   -1.1436    0.3008 C   0  0  0  0  0  0  0  0  0  0  0  0
   -3.4766   -0.9370    0.5420 C   0  0  0  0  0  0  0  0  0  0  0  0
   -4.0707    0.2862    0.2226 C   0  0  0  0  0  0  0  0  0  0  0  0
   -3.3042    1.3112   -0.3352 C   0  0  0  0  0  0  0  0  0  0  0  0
   -1.9424    1.1143   -0.5798 C   0  0  0  0  0  0  0  0  0  0  0  0
   -1.3353   -0.1171   -0.2771 C   0  0  0  0  0  0  0  0  0  0  0  0
    0.1434   -0.2956   -0.5196 C   0  0  0  0  0  0  0  0  0  0  0  0
    0.9431    0.0709    0.7337 C   0  0  0  0  0  0  0  0  0  0  0  0
    2.4128   -0.1096    0.4923 C   0  0  0  0  0  0  0  0  0  0  0  0
    3.2332    0.8969   -0.0406 C   0  0  0  0  0  0  0  0  0  0  0  0
    4.5494    0.4984   -0.2259 C   0  0  0  0  0  0  0  0  0  0  0  0
    4.6819   -1.1053    0.2591 S   0  0  0  0  0  0  0  0  0  0  0  0
    3.0770   -1.3119    0.7115 C   0  0  0  0  0  0  0  0  0  0  0  0
   -4.0766   -1.7241    0.9814 H   0  0  0  0  0  0  0  0  0  0  0  0
   -5.1250    0.4414    0.4124 H   0  0  0  0  0  0  0  0  0  0  0  0
   -3.7647    2.2608   -0.5754 H   0  0  0  0  0  0  0  0  0  0  0  0
   -1.3602    1.9230   -1.0043 H   0  0  0  0  0  0  0  0  0  0  0  0
    0.3585   -1.3465   -0.8125 H   0  0  0  0  0  0  0  0  0  0  0  0
    0.4672    0.3476   -1.3679 H   0  0  0  0  0  0  0  0  0  0  0  0
    0.7408    1.1285    1.0124 H   0  0  0  0  0  0  0  0  0  0  0  0
    0.6267   -0.5709    1.5851 H   0  0  0  0  0  0  0  0  0  0  0  0
    2.8773    1.8882   -0.2897 H   0  0  0  0  0  0  0  0  0  0  0  0
    5.3469    1.1123   -0.6220 H   0  0  0  0  0  0  0  0  0  0  0  0
    2.6373   -2.2222    1.0972 H   0  0  0  0  0  0  0  0  0  0  0  0
  1  2  1  0
  2  3  2  0
  3  4  1  0
  4  5  2  0
  5  6  1  0
  6  7  2  0
  7  8  1  0
  8  9  1  0
  9 10  1  0
 10 11  1  0
 11 12  2  0
 12 13  1  0
 13 14  1  0
  7  2  1  0
 14 10  2  0
  3 15  1  0
  4 16  1  0
  5 17  1  0
  6 18  1  0
  8 19  1  0
  8 20  1  0
  9 21  1  0
  9 22  1  0
 11 23  1  0
 12 24  1  0
 14 25  1  0
M  RAD  1   1   3
M  END
$$$$
