
     RDKit          3D

 25 26  0  0  0  0  0  0  0  0999 V2000
   -1.5715   -2.3538    0.6637 N   0  0  0  0  0  1  0  0  0  0  0  0
   -2.1334   -1.1021    0.2750 C   0  0  0  0  0  0  0  0  0  0  0  0
   -3.4653   -1.0559   -0.1544 C   0  0  0  0  0  0  0  0  0  0  0  0
   -4.0344    0.1553   -0.5549 C   0  0  0  0  0  0  0  0  0  0  0  0
   -3.2740    1.3261   -0.5329 C   0  0  0  0  0  0  0  0  0  0  0  0
   -1.9439    1.2900   -0.1057 C   0  0  0  0  0  0  0  0  0  0  0  0
   -1.3635    0.0803    0.3143 C   0  0  0  0  0  0  0  0  0  0  0  0
    0.0839    0.0596    0.7404 C   0  0  0  0  0  0  0  0  0  0  0  0
    0.9918   -0.2601   -0.4506 C   0  0  0  0  0  0  0  0  0  0  0  0
    2.4303   -0.2825   -0.0253 C   0  0  0  0  0  0  0  0  0  0  0  0
    3.2451    0.8603   -0.0104 C   0  0  0  0  0  0  0  0  0  0  0  0
    4.5267    0.6207    0.4646 C   0  0  0  0  0  0  0  0  0  0  0  0
    4.6346   -1.0051    0.8768 S   0  0  0  0  0  0  0  0  0  0  0  0
    3.0628   -1.4240    0.4561 C   0  0  0  0  0  0  0  0  0  0  0  0
   -4.0597   -1.9606   -0.1817 H   0  0  0  0  0  0  0  0  0  0  0  0
   -5.0640    0.1854   -0.8873 H   0  0  0  0  0  0  0  0  0  0  0  0
   -3.7145    2.2624   -0.8504 H   0  0  0  0  0  0  0  0  0  0  0  0
   -1.3652    2.2055   -0.1037 H   0  0  0  0  0  0  0  0  0  0  0  0
    0.3659    1.0477    1.1674 H   0  0  0  0  0  0  0  0  0  0  0  0
    0.2349   -0.6932    1.5447 H   0  0  0  0  0  0  0  0  0  0  0  0
    0.7177   -1.2486   -0.8801 H   0  0  0  0  0  0  0  0  0  0  0  0
    0.8526    0.5057   -1.2451 H   0  0  0  0  0  0  0  0  0  0  0  0
    2.9094    1.8376   -0.3323 H   0  0  0  0  0  0  0  0  0  0  0  0
    5.3141    1.3559    0.5601 H   0  0  0  0  0  0  0  0  0  0  0  0
    2.6196   -2.4065    0.5513 H   0  0  0  0  0  0  0  0  0  0  0  0
  1  2  1  0
  2  3  2  0
  3  4  1  0
  4  5  2  0
  5  6  1  0
  6  7  2  0
  7  8  1  0
  8  9  1  0
  9 10  1  0
 10 11  1  0
 11 12  2  0
 12 13  1  0
 13 14  1  0
  7  2  1  0
 14 10  2  0
  3 15  1  0
  4 16  1  0
  5 17  1  0
  6 18  1  0
  8 19  1  0
  8 20  1  0
  9 21  1  0
  9 22  1  0
 11 23  1  0
 12 24  1  0
 14 25  1  0
M  RAD  1   1   3
M  END
$$$$
