
     RDKit          3D

 25 26  0  0  0  0  0  0  0  0999 V2000
   -0.3264    2.3553   -0.3294 N   0  0  0  0  0  1  0  0  0  0  0  0
   -1.2819    1.3340   -0.0512 C   0  0  0  0  0  0  0  0  0  0  0  0
   -2.3765    1.6322    0.7694 C   0  0  0  0  0  0  0  0  0  0  0  0
   -3.3236    0.6494    1.0658 C   0  0  0  0  0  0  0  0  0  0  0  0
   -3.1812   -0.6381    0.5452 C   0  0  0  0  0  0  0  0  0  0  0  0
   -2.0923   -0.9458   -0.2746 C   0  0  0  0  0  0  0  0  0  0  0  0
   -1.1348    0.0353   -0.5870 C   0  0  0  0  0  0  0  0  0  0  0  0
    0.0459   -0.3362   -1.4555 C   0  0  0  0  0  0  0  0  0  0  0  0
    1.1271   -1.0860   -0.6664 C   0  0  0  0  0  0  0  0  0  0  0  0
    1.7640   -0.1947    0.4114 C   0  0  0  0  0  0  0  0  0  0  0  0
    2.9058    0.6924   -0.0602 C   0  0  0  0  0  0  0  0  0  0  0  0
    3.1990   -0.5450    0.7746 C   0  0  0  0  0  0  0  0  0  0  0  0
   -2.4926    2.6272    1.1806 H   0  0  0  0  0  0  0  0  0  0  0  0
   -4.1673    0.8853    1.7014 H   0  0  0  0  0  0  0  0  0  0  0  0
   -3.9141   -1.3995    0.7788 H   0  0  0  0  0  0  0  0  0  0  0  0
   -1.9932   -1.9509   -0.6658 H   0  0  0  0  0  0  0  0  0  0  0  0
   -0.3070   -0.9912   -2.2818 H   0  0  0  0  0  0  0  0  0  0  0  0
    0.4891    0.5600   -1.9403 H   0  0  0  0  0  0  0  0  0  0  0  0
    0.6820   -1.9772   -0.1743 H   0  0  0  0  0  0  0  0  0  0  0  0
    1.8905   -1.4560   -1.3864 H   0  0  0  0  0  0  0  0  0  0  0  0
    1.1535    0.1988    1.2521 H   0  0  0  0  0  0  0  0  0  0  0  0
    3.1881    0.5960   -1.1305 H   0  0  0  0  0  0  0  0  0  0  0  0
    3.0015    1.6481    0.4970 H   0  0  0  0  0  0  0  0  0  0  0  0
    3.6669   -1.3739    0.2014 H   0  0  0  0  0  0  0  0  0  0  0  0
    3.4775   -0.3195    1.8257 H   0  0  0  0  0  0  0  0  0  0  0  0
  1  2  1  0
  2  3  2  0
  3  4  1  0
  4  5  2  0
  5  6  1  0
  6  7  2  0
  7  8  1  0
  8  9  1  0
  9 10  1  0
 10 11  1  0
 11 12  1  0
  7  2  1  0
 12 10  1  0
  3 13  1  0
  4 14  1  0
  5 15  1  0
  6 16  1  0
  8 17  1  0
  8 18  1  0
  9 19  1  0
  9 20  1  0
 10 21  1  0
 11 22  1  0
 11 23  1  0
 12 24  1  0
 12 25  1  0
M  RAD  1   1   3
M  END
$$$$
