
     RDKit          3D

 25 26  0  0  0  0  0  0  0  0999 V2000
    1.7743   -1.6824    1.8864 N   0  0  0  0  0  1  0  0  0  0  0  0
    1.8536   -0.5823    0.9826 C   0  0  0  0  0  0  0  0  0  0  0  0
    2.7258    0.4748    1.2690 C   0  0  0  0  0  0  0  0  0  0  0  0
    2.8157    1.5678    0.4040 C   0  0  0  0  0  0  0  0  0  0  0  0
    2.0335    1.6107   -0.7516 C   0  0  0  0  0  0  0  0  0  0  0  0
    1.1610    0.5600   -1.0466 C   0  0  0  0  0  0  0  0  0  0  0  0
    1.0650   -0.5491   -0.1875 C   0  0  0  0  0  0  0  0  0  0  0  0
    0.0842   -1.6547   -0.5035 C   0  0  0  0  0  0  0  0  0  0  0  0
   -1.2252   -1.4965    0.2793 C   0  0  0  0  0  0  0  0  0  0  0  0
   -2.0040   -0.2518   -0.1727 C   0  0  0  0  0  0  0  0  0  0  0  0
   -3.0883    0.2014    0.7930 C   0  0  0  0  0  0  0  0  0  0  0  0
   -1.8018    1.0020    0.6661 C   0  0  0  0  0  0  0  0  0  0  0  0
    3.3332    0.4511    2.1652 H   0  0  0  0  0  0  0  0  0  0  0  0
    3.4901    2.3833    0.6311 H   0  0  0  0  0  0  0  0  0  0  0  0
    2.1006    2.4609   -1.4181 H   0  0  0  0  0  0  0  0  0  0  0  0
    0.5534    0.6150   -1.9415 H   0  0  0  0  0  0  0  0  0  0  0  0
    0.5391   -2.6373   -0.2529 H   0  0  0  0  0  0  0  0  0  0  0  0
   -0.1352   -1.6816   -1.5938 H   0  0  0  0  0  0  0  0  0  0  0  0
   -1.0113   -1.4805    1.3711 H   0  0  0  0  0  0  0  0  0  0  0  0
   -1.8601   -2.3866    0.0824 H   0  0  0  0  0  0  0  0  0  0  0  0
   -2.2415   -0.0943   -1.2466 H   0  0  0  0  0  0  0  0  0  0  0  0
   -3.9647    0.6836    0.3108 H   0  0  0  0  0  0  0  0  0  0  0  0
   -3.1708   -0.3680    1.7437 H   0  0  0  0  0  0  0  0  0  0  0  0
   -1.9108    1.9508    0.0999 H   0  0  0  0  0  0  0  0  0  0  0  0
   -1.1158    0.9037    1.5346 H   0  0  0  0  0  0  0  0  0  0  0  0
  1  2  1  0
  2  3  2  0
  3  4  1  0
  4  5  2  0
  5  6  1  0
  6  7  2  0
  7  8  1  0
  8  9  1  0
  9 10  1  0
 10 11  1  0
 11 12  1  0
  7  2  1  0
 12 10  1  0
  3 13  1  0
  4 14  1  0
  5 15  1  0
  6 16  1  0
  8 17  1  0
  8 18  1  0
  9 19  1  0
  9 20  1  0
 10 21  1  0
 11 22  1  0
 11 23  1  0
 12 24  1  0
 12 25  1  0
M  RAD  1   1   3
M  END
$$$$
