
     RDKit          3D

 25 26  0  0  0  0  0  0  0  0999 V2000
    1.0334   -1.3354    1.6797 N   0  0  0  0  0  1  0  0  0  0  0  0
    1.6313   -0.4999    0.6908 C   0  0  0  0  0  0  0  0  0  0  0  0
    2.7866    0.2206    1.0174 C   0  0  0  0  0  0  0  0  0  0  0  0
    3.3888    1.0534    0.0716 C   0  0  0  0  0  0  0  0  0  0  0  0
    2.8387    1.1726   -1.2058 C   0  0  0  0  0  0  0  0  0  0  0  0
    1.6858    0.4581   -1.5416 C   0  0  0  0  0  0  0  0  0  0  0  0
    1.0728   -0.3893   -0.6019 C   0  0  0  0  0  0  0  0  0  0  0  0
   -0.1886   -1.1288   -0.9877 C   0  0  0  0  0  0  0  0  0  0  0  0
   -1.4271   -0.2255   -0.9244 C   0  0  0  0  0  0  0  0  0  0  0  0
   -1.7248    0.2297    0.5129 C   0  0  0  0  0  0  0  0  0  0  0  0
   -3.1869    0.5303    0.8058 C   0  0  0  0  0  0  0  0  0  0  0  0
   -2.5466   -0.7372    1.3512 C   0  0  0  0  0  0  0  0  0  0  0  0
    3.2178    0.1369    2.0072 H   0  0  0  0  0  0  0  0  0  0  0  0
    4.2813    1.6086    0.3300 H   0  0  0  0  0  0  0  0  0  0  0  0
    3.3046    1.8213   -1.9363 H   0  0  0  0  0  0  0  0  0  0  0  0
    1.2682    0.5661   -2.5351 H   0  0  0  0  0  0  0  0  0  0  0  0
   -0.0800   -1.5076   -2.0274 H   0  0  0  0  0  0  0  0  0  0  0  0
   -0.3442   -2.0238   -0.3480 H   0  0  0  0  0  0  0  0  0  0  0  0
   -2.2874   -0.7828   -1.3573 H   0  0  0  0  0  0  0  0  0  0  0  0
   -1.2680    0.6739   -1.5572 H   0  0  0  0  0  0  0  0  0  0  0  0
   -0.9990    0.8629    1.0666 H   0  0  0  0  0  0  0  0  0  0  0  0
   -3.3521    1.3143    1.5748 H   0  0  0  0  0  0  0  0  0  0  0  0
   -3.9052    0.3509   -0.0226 H   0  0  0  0  0  0  0  0  0  0  0  0
   -2.3246   -0.7011    2.4386 H   0  0  0  0  0  0  0  0  0  0  0  0
   -2.8746   -1.6680    0.8407 H   0  0  0  0  0  0  0  0  0  0  0  0
  1  2  1  0
  2  3  2  0
  3  4  1  0
  4  5  2  0
  5  6  1  0
  6  7  2  0
  7  8  1  0
  8  9  1  0
  9 10  1  0
 10 11  1  0
 11 12  1  0
  7  2  1  0
 12 10  1  0
  3 13  1  0
  4 14  1  0
  5 15  1  0
  6 16  1  0
  8 17  1  0
  8 18  1  0
  9 19  1  0
  9 20  1  0
 10 21  1  0
 11 22  1  0
 11 23  1  0
 12 24  1  0
 12 25  1  0
M  RAD  1   1   3
M  END
$$$$
