
     RDKit          3D

 25 26  0  0  0  0  0  0  0  0999 V2000
    0.9672   -2.3124    1.5988 N   0  0  0  0  0  1  0  0  0  0  0  0
    1.4677   -1.1225    0.9929 C   0  0  0  0  0  0  0  0  0  0  0  0
    2.4281   -0.3629    1.6718 C   0  0  0  0  0  0  0  0  0  0  0  0
    2.9279    0.8110    1.1034 C   0  0  0  0  0  0  0  0  0  0  0  0
    2.4698    1.2329   -0.1461 C   0  0  0  0  0  0  0  0  0  0  0  0
    1.5123    0.4810   -0.8317 C   0  0  0  0  0  0  0  0  0  0  0  0
    1.0051   -0.7060   -0.2738 C   0  0  0  0  0  0  0  0  0  0  0  0
   -0.0606   -1.4818   -1.0131 C   0  0  0  0  0  0  0  0  0  0  0  0
   -1.4662   -1.1603   -0.4903 C   0  0  0  0  0  0  0  0  0  0  0  0
   -1.8648    0.2900   -0.8032 C   0  0  0  0  0  0  0  0  0  0  0  0
   -3.0445    0.8101    0.0038 C   0  0  0  0  0  0  0  0  0  0  0  0
   -1.6385    1.2992    0.3133 C   0  0  0  0  0  0  0  0  0  0  0  0
    2.7860   -0.6810    2.6430 H   0  0  0  0  0  0  0  0  0  0  0  0
    3.6689    1.3956    1.6333 H   0  0  0  0  0  0  0  0  0  0  0  0
    2.8543    2.1456   -0.5826 H   0  0  0  0  0  0  0  0  0  0  0  0
    1.1599    0.8288   -1.7949 H   0  0  0  0  0  0  0  0  0  0  0  0
    0.1273   -2.5712   -0.8996 H   0  0  0  0  0  0  0  0  0  0  0  0
   -0.0119   -1.2690   -2.1040 H   0  0  0  0  0  0  0  0  0  0  0  0
   -2.1907   -1.8309   -0.9997 H   0  0  0  0  0  0  0  0  0  0  0  0
   -1.5226   -1.3823    0.5986 H   0  0  0  0  0  0  0  0  0  0  0  0
   -1.8027    0.6804   -1.8417 H   0  0  0  0  0  0  0  0  0  0  0  0
   -3.4591    0.1209    0.7706 H   0  0  0  0  0  0  0  0  0  0  0  0
   -3.6723    1.5583   -0.5248 H   0  0  0  0  0  0  0  0  0  0  0  0
   -1.4276    2.3301   -0.0409 H   0  0  0  0  0  0  0  0  0  0  0  0
   -1.2129    0.8964    1.2574 H   0  0  0  0  0  0  0  0  0  0  0  0
  1  2  1  0
  2  3  2  0
  3  4  1  0
  4  5  2  0
  5  6  1  0
  6  7  2  0
  7  8  1  0
  8  9  1  0
  9 10  1  0
 10 11  1  0
 11 12  1  0
  7  2  1  0
 12 10  1  0
  3 13  1  0
  4 14  1  0
  5 15  1  0
  6 16  1  0
  8 17  1  0
  8 18  1  0
  9 19  1  0
  9 20  1  0
 10 21  1  0
 11 22  1  0
 11 23  1  0
 12 24  1  0
 12 25  1  0
M  RAD  1   1   3
M  END
$$$$
