
     RDKit          3D

 25 26  0  0  0  0  0  0  0  0999 V2000
    0.9998   -1.7566   -1.2512 N   0  0  0  0  0  1  0  0  0  0  0  0
    1.4898   -0.6827   -0.4514 C   0  0  0  0  0  0  0  0  0  0  0  0
    2.4288    0.1995   -0.9994 C   0  0  0  0  0  0  0  0  0  0  0  0
    2.9183    1.2668   -0.2432 C   0  0  0  0  0  0  0  0  0  0  0  0
    2.4709    1.4597    1.0649 C   0  0  0  0  0  0  0  0  0  0  0  0
    1.5339    0.5851    1.6209 C   0  0  0  0  0  0  0  0  0  0  0  0
    1.0372   -0.4974    0.8737 C   0  0  0  0  0  0  0  0  0  0  0  0
   -0.0058   -1.4019    1.4902 C   0  0  0  0  0  0  0  0  0  0  0  0
   -1.4032   -0.7714    1.4467 C   0  0  0  0  0  0  0  0  0  0  0  0
   -1.9273   -0.6593    0.0072 C   0  0  0  0  0  0  0  0  0  0  0  0
   -3.0894    0.3060   -0.1696 C   0  0  0  0  0  0  0  0  0  0  0  0
   -1.7071    0.6804   -0.6804 C   0  0  0  0  0  0  0  0  0  0  0  0
    2.7779    0.0599   -2.0149 H   0  0  0  0  0  0  0  0  0  0  0  0
    3.6431    1.9465   -0.6726 H   0  0  0  0  0  0  0  0  0  0  0  0
    2.8481    2.2899    1.6480 H   0  0  0  0  0  0  0  0  0  0  0  0
    1.1904    0.7538    2.6342 H   0  0  0  0  0  0  0  0  0  0  0  0
   -0.0247   -2.3955    0.9930 H   0  0  0  0  0  0  0  0  0  0  0  0
    0.2638   -1.5922    2.5520 H   0  0  0  0  0  0  0  0  0  0  0  0
   -2.1001   -1.4251    2.0135 H   0  0  0  0  0  0  0  0  0  0  0  0
   -1.3853    0.2149    1.9623 H   0  0  0  0  0  0  0  0  0  0  0  0
   -1.9631   -1.5538   -0.6509 H   0  0  0  0  0  0  0  0  0  0  0  0
   -3.8032    0.0282   -0.9737 H   0  0  0  0  0  0  0  0  0  0  0  0
   -3.4024    0.8719    0.7341 H   0  0  0  0  0  0  0  0  0  0  0  0
   -1.1941    1.4604   -0.0779 H   0  0  0  0  0  0  0  0  0  0  0  0
   -1.5961    0.6130   -1.7831 H   0  0  0  0  0  0  0  0  0  0  0  0
  1  2  1  0
  2  3  2  0
  3  4  1  0
  4  5  2  0
  5  6  1  0
  6  7  2  0
  7  8  1  0
  8  9  1  0
  9 10  1  0
 10 11  1  0
 11 12  1  0
  7  2  1  0
 12 10  1  0
  3 13  1  0
  4 14  1  0
  5 15  1  0
  6 16  1  0
  8 17  1  0
  8 18  1  0
  9 19  1  0
  9 20  1  0
 10 21  1  0
 11 22  1  0
 11 23  1  0
 12 24  1  0
 12 25  1  0
M  RAD  1   1   3
M  END
$$$$
