
     RDKit          3D

 25 26  0  0  0  0  0  0  0  0999 V2000
   -0.8241    1.1425    1.9435 N   0  0  0  0  0  1  0  0  0  0  0  0
   -1.5425    0.5132    0.8845 C   0  0  0  0  0  0  0  0  0  0  0  0
   -2.7446    1.0819    0.4464 C   0  0  0  0  0  0  0  0  0  0  0  0
   -3.4652    0.4920   -0.5946 C   0  0  0  0  0  0  0  0  0  0  0  0
   -2.9873   -0.6687   -1.2054 C   0  0  0  0  0  0  0  0  0  0  0  0
   -1.7886   -1.2439   -0.7756 C   0  0  0  0  0  0  0  0  0  0  0  0
   -1.0562   -0.6650    0.2757 C   0  0  0  0  0  0  0  0  0  0  0  0
    0.2506   -1.2966    0.6999 C   0  0  0  0  0  0  0  0  0  0  0  0
    1.3997   -0.9340   -0.2497 C   0  0  0  0  0  0  0  0  0  0  0  0
    1.7181    0.5689   -0.2076 C   0  0  0  0  0  0  0  0  0  0  0  0
    2.6646    1.0090    0.8986 C   0  0  0  0  0  0  0  0  0  0  0  0
    3.1570    0.9342   -0.5388 C   0  0  0  0  0  0  0  0  0  0  0  0
   -3.1206    1.9844    0.9119 H   0  0  0  0  0  0  0  0  0  0  0  0
   -4.3934    0.9365   -0.9297 H   0  0  0  0  0  0  0  0  0  0  0  0
   -3.5451   -1.1224   -2.0144 H   0  0  0  0  0  0  0  0  0  0  0  0
   -1.4286   -2.1412   -1.2638 H   0  0  0  0  0  0  0  0  0  0  0  0
    0.5190   -1.0111    1.7396 H   0  0  0  0  0  0  0  0  0  0  0  0
    0.1312   -2.4021    0.7045 H   0  0  0  0  0  0  0  0  0  0  0  0
    1.1277   -1.2114   -1.2907 H   0  0  0  0  0  0  0  0  0  0  0  0
    2.2883   -1.5424    0.0302 H   0  0  0  0  0  0  0  0  0  0  0  0
    0.9617    1.3157   -0.5305 H   0  0  0  0  0  0  0  0  0  0  0  0
    3.0555    0.2026    1.5555 H   0  0  0  0  0  0  0  0  0  0  0  0
    2.4898    2.0427    1.2645 H   0  0  0  0  0  0  0  0  0  0  0  0
    3.8508    0.0884   -0.7332 H   0  0  0  0  0  0  0  0  0  0  0  0
    3.2823    1.9269   -1.0206 H   0  0  0  0  0  0  0  0  0  0  0  0
  1  2  1  0
  2  3  2  0
  3  4  1  0
  4  5  2  0
  5  6  1  0
  6  7  2  0
  7  8  1  0
  8  9  1  0
  9 10  1  0
 10 11  1  0
 11 12  1  0
  7  2  1  0
 12 10  1  0
  3 13  1  0
  4 14  1  0
  5 15  1  0
  6 16  1  0
  8 17  1  0
  8 18  1  0
  9 19  1  0
  9 20  1  0
 10 21  1  0
 11 22  1  0
 11 23  1  0
 12 24  1  0
 12 25  1  0
M  RAD  1   1   3
M  END
$$$$
