
     RDKit          3D

 25 26  0  0  0  0  0  0  0  0999 V2000
    0.2189   -1.3493   -2.1959 N   0  0  0  0  0  1  0  0  0  0  0  0
    1.1039   -0.7489   -1.2528 C   0  0  0  0  0  0  0  0  0  0  0  0
    2.1983   -0.0119   -1.7212 C   0  0  0  0  0  0  0  0  0  0  0  0
    3.0757    0.5964   -0.8208 C   0  0  0  0  0  0  0  0  0  0  0  0
    2.8634    0.4731    0.5534 C   0  0  0  0  0  0  0  0  0  0  0  0
    1.7740   -0.2599    1.0309 C   0  0  0  0  0  0  0  0  0  0  0  0
    0.8862   -0.8832    0.1363 C   0  0  0  0  0  0  0  0  0  0  0  0
   -0.3053   -1.6354    0.6842 C   0  0  0  0  0  0  0  0  0  0  0  0
   -1.4371   -0.6862    1.0968 C   0  0  0  0  0  0  0  0  0  0  0  0
   -2.0642    0.0076   -0.1218 C   0  0  0  0  0  0  0  0  0  0  0  0
   -2.8863    1.2442    0.2079 C   0  0  0  0  0  0  0  0  0  0  0  0
   -1.5246    1.3917   -0.4523 C   0  0  0  0  0  0  0  0  0  0  0  0
    2.3679    0.0925   -2.7856 H   0  0  0  0  0  0  0  0  0  0  0  0
    3.9193    1.1661   -1.1886 H   0  0  0  0  0  0  0  0  0  0  0  0
    3.5419    0.9488    1.2497 H   0  0  0  0  0  0  0  0  0  0  0  0
    1.6184   -0.3387    2.0999 H   0  0  0  0  0  0  0  0  0  0  0  0
    0.0138   -2.2152    1.5778 H   0  0  0  0  0  0  0  0  0  0  0  0
   -0.6855   -2.3799   -0.0479 H   0  0  0  0  0  0  0  0  0  0  0  0
   -1.0580    0.0460    1.8445 H   0  0  0  0  0  0  0  0  0  0  0  0
   -2.2306   -1.2830    1.5952 H   0  0  0  0  0  0  0  0  0  0  0  0
   -2.4486   -0.5909   -0.9753 H   0  0  0  0  0  0  0  0  0  0  0  0
   -2.9039    1.5548    1.2747 H   0  0  0  0  0  0  0  0  0  0  0  0
   -3.7388    1.4295   -0.4793 H   0  0  0  0  0  0  0  0  0  0  0  0
   -0.7310    1.7804    0.2212 H   0  0  0  0  0  0  0  0  0  0  0  0
   -1.5678    1.6512   -1.5310 H   0  0  0  0  0  0  0  0  0  0  0  0
  1  2  1  0
  2  3  2  0
  3  4  1  0
  4  5  2  0
  5  6  1  0
  6  7  2  0
  7  8  1  0
  8  9  1  0
  9 10  1  0
 10 11  1  0
 11 12  1  0
  7  2  1  0
 12 10  1  0
  3 13  1  0
  4 14  1  0
  5 15  1  0
  6 16  1  0
  8 17  1  0
  8 18  1  0
  9 19  1  0
  9 20  1  0
 10 21  1  0
 11 22  1  0
 11 23  1  0
 12 24  1  0
 12 25  1  0
M  RAD  1   1   3
M  END
$$$$
