
     RDKit          3D

 25 26  0  0  0  0  0  0  0  0999 V2000
   -0.5813    1.2040    2.0105 N   0  0  0  0  0  1  0  0  0  0  0  0
   -1.4218    0.6923    0.9783 C   0  0  0  0  0  0  0  0  0  0  0  0
   -2.5581    1.4195    0.6036 C   0  0  0  0  0  0  0  0  0  0  0  0
   -3.3948    0.9468   -0.4099 C   0  0  0  0  0  0  0  0  0  0  0  0
   -3.0996   -0.2547   -1.0564 C   0  0  0  0  0  0  0  0  0  0  0  0
   -1.9679   -0.9878   -0.6900 C   0  0  0  0  0  0  0  0  0  0  0  0
   -1.1204   -0.5277    0.3332 C   0  0  0  0  0  0  0  0  0  0  0  0
    0.1107   -1.3306    0.6884 C   0  0  0  0  0  0  0  0  0  0  0  0
    1.2539   -1.1025   -0.3091 C   0  0  0  0  0  0  0  0  0  0  0  0
    1.7665    0.3455   -0.2635 C   0  0  0  0  0  0  0  0  0  0  0  0
    2.8107    0.6393    0.8026 C   0  0  0  0  0  0  0  0  0  0  0  0
    3.2245    0.5277   -0.6571 C   0  0  0  0  0  0  0  0  0  0  0  0
   -2.7924    2.3544    1.0972 H   0  0  0  0  0  0  0  0  0  0  0  0
   -4.2714    1.5137   -0.6961 H   0  0  0  0  0  0  0  0  0  0  0  0
   -3.7471   -0.6177   -1.8441 H   0  0  0  0  0  0  0  0  0  0  0  0
   -1.7497   -1.9151   -1.2053 H   0  0  0  0  0  0  0  0  0  0  0  0
    0.4600   -1.1011    1.7179 H   0  0  0  0  0  0  0  0  0  0  0  0
   -0.1511   -2.4113    0.6850 H   0  0  0  0  0  0  0  0  0  0  0  0
    2.0673   -1.8258   -0.0784 H   0  0  0  0  0  0  0  0  0  0  0  0
    0.9019   -1.3234   -1.3397 H   0  0  0  0  0  0  0  0  0  0  0  0
    1.1000    1.1897   -0.5415 H   0  0  0  0  0  0  0  0  0  0  0  0
    2.7885    1.6800    1.1890 H   0  0  0  0  0  0  0  0  0  0  0  0
    3.1225   -0.2228    1.4305 H   0  0  0  0  0  0  0  0  0  0  0  0
    3.4561    1.5044   -1.1320 H   0  0  0  0  0  0  0  0  0  0  0  0
    3.7929   -0.3971   -0.8940 H   0  0  0  0  0  0  0  0  0  0  0  0
  1  2  1  0
  2  3  2  0
  3  4  1  0
  4  5  2  0
  5  6  1  0
  6  7  2  0
  7  8  1  0
  8  9  1  0
  9 10  1  0
 10 11  1  0
 11 12  1  0
  7  2  1  0
 12 10  1  0
  3 13  1  0
  4 14  1  0
  5 15  1  0
  6 16  1  0
  8 17  1  0
  8 18  1  0
  9 19  1  0
  9 20  1  0
 10 21  1  0
 11 22  1  0
 11 23  1  0
 12 24  1  0
 12 25  1  0
M  RAD  1   1   3
M  END
$$$$
