
     RDKit          3D

 25 26  0  0  0  0  0  0  0  0999 V2000
   -1.7294    2.4000   -0.2089 N   0  0  0  0  0  1  0  0  0  0  0  0
   -1.8413    0.9950    0.0077 C   0  0  0  0  0  0  0  0  0  0  0  0
   -2.8799    0.2895   -0.6117 C   0  0  0  0  0  0  0  0  0  0  0  0
   -3.0062   -1.0886   -0.4221 C   0  0  0  0  0  0  0  0  0  0  0  0
   -2.0945   -1.7693    0.3869 C   0  0  0  0  0  0  0  0  0  0  0  0
   -1.0553   -1.0737    1.0103 C   0  0  0  0  0  0  0  0  0  0  0  0
   -0.9201    0.3147    0.8328 C   0  0  0  0  0  0  0  0  0  0  0  0
    0.2355    1.0406    1.4822 C   0  0  0  0  0  0  0  0  0  0  0  0
    1.3985    1.2511    0.5047 C   0  0  0  0  0  0  0  0  0  0  0  0
    2.0514   -0.0828    0.1116 C   0  0  0  0  0  0  0  0  0  0  0  0
    2.9294   -0.0162   -1.1287 C   0  0  0  0  0  0  0  0  0  0  0  0
    1.5729   -0.6998   -1.1948 C   0  0  0  0  0  0  0  0  0  0  0  0
   -3.5890    0.8092   -1.2439 H   0  0  0  0  0  0  0  0  0  0  0  0
   -3.8097   -1.6297   -0.9049 H   0  0  0  0  0  0  0  0  0  0  0  0
   -2.1907   -2.8380    0.5285 H   0  0  0  0  0  0  0  0  0  0  0  0
   -0.3505   -1.6194    1.6254 H   0  0  0  0  0  0  0  0  0  0  0  0
   -0.1090    2.0301    1.8530 H   0  0  0  0  0  0  0  0  0  0  0  0
    0.5957    0.4815    2.3739 H   0  0  0  0  0  0  0  0  0  0  0  0
    2.1694    1.8736    1.0071 H   0  0  0  0  0  0  0  0  0  0  0  0
    1.0450    1.8198   -0.3839 H   0  0  0  0  0  0  0  0  0  0  0  0
    2.4021   -0.7909    0.8928 H   0  0  0  0  0  0  0  0  0  0  0  0
    3.7866   -0.7222   -1.1267 H   0  0  0  0  0  0  0  0  0  0  0  0
    2.9654    0.9618   -1.6550 H   0  0  0  0  0  0  0  0  0  0  0  0
    1.6234   -1.8087   -1.2197 H   0  0  0  0  0  0  0  0  0  0  0  0
    0.8002   -0.1274   -1.7515 H   0  0  0  0  0  0  0  0  0  0  0  0
  1  2  1  0
  2  3  2  0
  3  4  1  0
  4  5  2  0
  5  6  1  0
  6  7  2  0
  7  8  1  0
  8  9  1  0
  9 10  1  0
 10 11  1  0
 11 12  1  0
  7  2  1  0
 12 10  1  0
  3 13  1  0
  4 14  1  0
  5 15  1  0
  6 16  1  0
  8 17  1  0
  8 18  1  0
  9 19  1  0
  9 20  1  0
 10 21  1  0
 11 22  1  0
 11 23  1  0
 12 24  1  0
 12 25  1  0
M  RAD  1   1   3
M  END
$$$$
