
     RDKit          3D

 32 34  0  0  0  0  0  0  0  0999 V2000
   -2.9116   -1.9765    1.4822 N   0  0  0  0  0  1  0  0  0  0  0  0
   -3.4366   -0.8000    0.8708 C   0  0  0  0  0  0  0  0  0  0  0  0
   -4.8110   -0.7183    0.6161 C   0  0  0  0  0  0  0  0  0  0  0  0
   -5.3476    0.4170    0.0042 C   0  0  0  0  0  0  0  0  0  0  0  0
   -4.5127    1.4750   -0.3607 C   0  0  0  0  0  0  0  0  0  0  0  0
   -3.1397    1.4028   -0.1104 C   0  0  0  0  0  0  0  0  0  0  0  0
   -2.5890    0.2724    0.5185 C   0  0  0  0  0  0  0  0  0  0  0  0
   -1.0994    0.2026    0.7490 C   0  0  0  0  0  0  0  0  0  0  0  0
   -0.4025   -0.4807   -0.4313 C   0  0  0  0  0  0  0  0  0  0  0  0
    1.0821   -0.5523   -0.1987 C   0  0  0  0  0  0  0  0  0  0  0  0
    1.6416   -1.6582    0.4876 C   0  0  0  0  0  0  0  0  0  0  0  0
    3.0220   -1.7175    0.7402 C   0  0  0  0  0  0  0  0  0  0  0  0
    3.8114   -0.6569    0.3041 C   0  0  0  0  0  0  0  0  0  0  0  0
    5.2271   -0.4224    0.4167 C   0  0  0  0  0  0  0  0  0  0  0  0
    6.0649   -1.1896    0.9586 O   0  0  0  0  0  0  0  0  0  0  0  0
    5.5444    0.7966   -0.1683 O   0  0  0  0  0  0  0  0  0  0  0  0
    4.3617    1.4161   -0.6878 C   0  0  0  0  0  0  0  0  0  0  0  0
    3.2829    0.4279   -0.3511 C   0  0  0  0  0  0  0  0  0  0  0  0
    1.9154    0.5100   -0.6127 C   0  0  0  0  0  0  0  0  0  0  0  0
   -5.4643   -1.5377    0.8890 H   0  0  0  0  0  0  0  0  0  0  0  0
   -6.4105    0.4745   -0.1919 H   0  0  0  0  0  0  0  0  0  0  0  0
   -4.9292    2.3508   -0.8413 H   0  0  0  0  0  0  0  0  0  0  0  0
   -2.5049    2.2282   -0.4084 H   0  0  0  0  0  0  0  0  0  0  0  0
   -0.8837   -0.3512    1.6888 H   0  0  0  0  0  0  0  0  0  0  0  0
   -0.6892    1.2287    0.8789 H   0  0  0  0  0  0  0  0  0  0  0  0
   -0.6099    0.0845   -1.3669 H   0  0  0  0  0  0  0  0  0  0  0  0
   -0.8105   -1.5064   -0.5676 H   0  0  0  0  0  0  0  0  0  0  0  0
    1.0072   -2.4677    0.8266 H   0  0  0  0  0  0  0  0  0  0  0  0
    3.4566   -2.5601    1.2622 H   0  0  0  0  0  0  0  0  0  0  0  0
    4.4466    1.5468   -1.7871 H   0  0  0  0  0  0  0  0  0  0  0  0
    4.1799    2.3858   -0.1785 H   0  0  0  0  0  0  0  0  0  0  0  0
    1.5086    1.3754   -1.1208 H   0  0  0  0  0  0  0  0  0  0  0  0
  1  2  1  0
  2  3  2  0
  3  4  1  0
  4  5  2  0
  5  6  1  0
  6  7  2  0
  7  8  1  0
  8  9  1  0
  9 10  1  0
 10 11  1  0
 11 12  2  0
 12 13  1  0
 13 14  1  0
 14 15  2  0
 14 16  1  0
 16 17  1  0
 17 18  1  0
 18 19  1  0
  7  2  1  0
 18 13  2  0
 19 10  2  0
  3 20  1  0
  4 21  1  0
  5 22  1  0
  6 23  1  0
  8 24  1  0
  8 25  1  0
  9 26  1  0
  9 27  1  0
 11 28  1  0
 12 29  1  0
 17 30  1  0
 17 31  1  0
 19 32  1  0
M  RAD  1   1   3
M  END
$$$$
