
     RDKit          3D

 32 34  0  0  0  0  0  0  0  0999 V2000
   -2.9837   -2.2204    1.5535 N   0  0  0  0  0  1  0  0  0  0  0  0
   -2.7199   -0.8663    1.1928 C   0  0  0  0  0  0  0  0  0  0  0  0
   -3.0395    0.1554    2.0951 C   0  0  0  0  0  0  0  0  0  0  0  0
   -2.7786    1.4888    1.7706 C   0  0  0  0  0  0  0  0  0  0  0  0
   -2.1967    1.8084    0.5425 C   0  0  0  0  0  0  0  0  0  0  0  0
   -1.8768    0.7960   -0.3656 C   0  0  0  0  0  0  0  0  0  0  0  0
   -2.1389   -0.5501   -0.0539 C   0  0  0  0  0  0  0  0  0  0  0  0
   -1.7321   -1.6330   -1.0272 C   0  0  0  0  0  0  0  0  0  0  0  0
   -0.3760   -2.2526   -0.6598 C   0  0  0  0  0  0  0  0  0  0  0  0
    0.7381   -1.2407   -0.7361 C   0  0  0  0  0  0  0  0  0  0  0  0
    1.3177   -0.9156   -1.9869 C   0  0  0  0  0  0  0  0  0  0  0  0
    2.3148    0.0695   -2.0771 C   0  0  0  0  0  0  0  0  0  0  0  0
    2.7038    0.7136   -0.9057 C   0  0  0  0  0  0  0  0  0  0  0  0
    3.6648    1.7601   -0.6755 C   0  0  0  0  0  0  0  0  0  0  0  0
    4.3861    2.3094   -1.5485 O   0  0  0  0  0  0  0  0  0  0  0  0
    3.6820    2.0869    0.6742 O   0  0  0  0  0  0  0  0  0  0  0  0
    2.7396    1.2784    1.3886 C   0  0  0  0  0  0  0  0  0  0  0  0
    2.1469    0.4152    0.3133 C   0  0  0  0  0  0  0  0  0  0  0  0
    1.1577   -0.5604    0.4286 C   0  0  0  0  0  0  0  0  0  0  0  0
   -3.4866   -0.0842    3.0518 H   0  0  0  0  0  0  0  0  0  0  0  0
   -3.0244    2.2745    2.4731 H   0  0  0  0  0  0  0  0  0  0  0  0
   -1.9887    2.8414    0.2955 H   0  0  0  0  0  0  0  0  0  0  0  0
   -1.4124    1.0606   -1.3077 H   0  0  0  0  0  0  0  0  0  0  0  0
   -2.5037   -2.4327   -1.0396 H   0  0  0  0  0  0  0  0  0  0  0  0
   -1.6871   -1.2274   -2.0621 H   0  0  0  0  0  0  0  0  0  0  0  0
   -0.4269   -2.6964    0.3585 H   0  0  0  0  0  0  0  0  0  0  0  0
   -0.1614   -3.0877   -1.3615 H   0  0  0  0  0  0  0  0  0  0  0  0
    0.9885   -1.4188   -2.8874 H   0  0  0  0  0  0  0  0  0  0  0  0
    2.7595    0.3256   -3.0299 H   0  0  0  0  0  0  0  0  0  0  0  0
    1.9595    1.9170    1.8541 H   0  0  0  0  0  0  0  0  0  0  0  0
    3.2610    0.6588    2.1481 H   0  0  0  0  0  0  0  0  0  0  0  0
    0.7133   -0.7736    1.3929 H   0  0  0  0  0  0  0  0  0  0  0  0
  1  2  1  0
  2  3  2  0
  3  4  1  0
  4  5  2  0
  5  6  1  0
  6  7  2  0
  7  8  1  0
  8  9  1  0
  9 10  1  0
 10 11  1  0
 11 12  2  0
 12 13  1  0
 13 14  1  0
 14 15  2  0
 14 16  1  0
 16 17  1  0
 17 18  1  0
 18 19  1  0
  7  2  1  0
 18 13  2  0
 19 10  2  0
  3 20  1  0
  4 21  1  0
  5 22  1  0
  6 23  1  0
  8 24  1  0
  8 25  1  0
  9 26  1  0
  9 27  1  0
 11 28  1  0
 12 29  1  0
 17 30  1  0
 17 31  1  0
 19 32  1  0
M  RAD  1   1   3
M  END
$$$$
