
     RDKit          3D

 32 34  0  0  0  0  0  0  0  0999 V2000
   -2.8824    1.7741   -1.6847 N   0  0  0  0  0  1  0  0  0  0  0  0
   -3.4184    0.9813   -0.6275 C   0  0  0  0  0  0  0  0  0  0  0  0
   -4.7987    0.7511   -0.5794 C   0  0  0  0  0  0  0  0  0  0  0  0
   -5.3465   -0.0348    0.4373 C   0  0  0  0  0  0  0  0  0  0  0  0
   -4.5172   -0.5988    1.4087 C   0  0  0  0  0  0  0  0  0  0  0  0
   -3.1384   -0.3745    1.3691 C   0  0  0  0  0  0  0  0  0  0  0  0
   -2.5760    0.4269    0.3601 C   0  0  0  0  0  0  0  0  0  0  0  0
   -1.0811    0.6282    0.3184 C   0  0  0  0  0  0  0  0  0  0  0  0
   -0.4185   -0.4328   -0.5652 C   0  0  0  0  0  0  0  0  0  0  0  0
    1.0714   -0.2289   -0.6082 C   0  0  0  0  0  0  0  0  0  0  0  0
    1.6443    0.6245   -1.5832 C   0  0  0  0  0  0  0  0  0  0  0  0
    3.0306    0.8485   -1.6098 C   0  0  0  0  0  0  0  0  0  0  0  0
    3.8127    0.2151   -0.6477 C   0  0  0  0  0  0  0  0  0  0  0  0
    5.2318    0.2493   -0.4095 C   0  0  0  0  0  0  0  0  0  0  0  0
    6.0804    0.8948   -1.0784 O   0  0  0  0  0  0  0  0  0  0  0  0
    5.5385   -0.5462    0.6866 O   0  0  0  0  0  0  0  0  0  0  0  0
    4.3451   -1.1352    1.2170 C   0  0  0  0  0  0  0  0  0  0  0  0
    3.2715   -0.6049    0.3116 C   0  0  0  0  0  0  0  0  0  0  0  0
    1.8979   -0.8421    0.3589 C   0  0  0  0  0  0  0  0  0  0  0  0
   -5.4480    1.1785   -1.3333 H   0  0  0  0  0  0  0  0  0  0  0  0
   -6.4140   -0.2108    0.4692 H   0  0  0  0  0  0  0  0  0  0  0  0
   -4.9426   -1.2134    2.1915 H   0  0  0  0  0  0  0  0  0  0  0  0
   -2.5082   -0.8272    2.1248 H   0  0  0  0  0  0  0  0  0  0  0  0
   -0.8430    1.6441   -0.0658 H   0  0  0  0  0  0  0  0  0  0  0  0
   -0.6633    0.5677    1.3479 H   0  0  0  0  0  0  0  0  0  0  0  0
   -0.6482   -1.4467   -0.1690 H   0  0  0  0  0  0  0  0  0  0  0  0
   -0.8342   -0.3786   -1.5955 H   0  0  0  0  0  0  0  0  0  0  0  0
    1.0157    1.1148   -2.3161 H   0  0  0  0  0  0  0  0  0  0  0  0
    3.4753    1.4977   -2.3528 H   0  0  0  0  0  0  0  0  0  0  0  0
    4.1809   -0.7975    2.2619 H   0  0  0  0  0  0  0  0  0  0  0  0
    4.4014   -2.2422    1.1543 H   0  0  0  0  0  0  0  0  0  0  0  0
    1.4814   -1.4822    1.1266 H   0  0  0  0  0  0  0  0  0  0  0  0
  1  2  1  0
  2  3  2  0
  3  4  1  0
  4  5  2  0
  5  6  1  0
  6  7  2  0
  7  8  1  0
  8  9  1  0
  9 10  1  0
 10 11  1  0
 11 12  2  0
 12 13  1  0
 13 14  1  0
 14 15  2  0
 14 16  1  0
 16 17  1  0
 17 18  1  0
 18 19  1  0
  7  2  1  0
 18 13  2  0
 19 10  2  0
  3 20  1  0
  4 21  1  0
  5 22  1  0
  6 23  1  0
  8 24  1  0
  8 25  1  0
  9 26  1  0
  9 27  1  0
 11 28  1  0
 12 29  1  0
 17 30  1  0
 17 31  1  0
 19 32  1  0
M  RAD  1   1   3
M  END
$$$$
