
     RDKit          3D

 32 34  0  0  0  0  0  0  0  0999 V2000
   -3.0387    0.0026    2.1729 N   0  0  0  0  0  1  0  0  0  0  0  0
   -3.4975   -0.0295    0.8230 C   0  0  0  0  0  0  0  0  0  0  0  0
   -4.8370   -0.3448    0.5648 C   0  0  0  0  0  0  0  0  0  0  0  0
   -5.3072   -0.3977   -0.7496 C   0  0  0  0  0  0  0  0  0  0  0  0
   -4.4400   -0.1404   -1.8131 C   0  0  0  0  0  0  0  0  0  0  0  0
   -3.1014    0.1753   -1.5653 C   0  0  0  0  0  0  0  0  0  0  0  0
   -2.6190    0.2468   -0.2467 C   0  0  0  0  0  0  0  0  0  0  0  0
   -1.1623    0.5574   -0.0046 C   0  0  0  0  0  0  0  0  0  0  0  0
   -0.3424   -0.7335    0.0793 C   0  0  0  0  0  0  0  0  0  0  0  0
    1.1091   -0.4224    0.3238 C   0  0  0  0  0  0  0  0  0  0  0  0
    1.5941   -0.2882    1.6480 C   0  0  0  0  0  0  0  0  0  0  0  0
    2.9398    0.0362    1.8859 C   0  0  0  0  0  0  0  0  0  0  0  0
    3.7695    0.2281    0.7844 C   0  0  0  0  0  0  0  0  0  0  0  0
    5.1647    0.5714    0.6992 C   0  0  0  0  0  0  0  0  0  0  0  0
    5.9412    0.7649    1.6706 O   0  0  0  0  0  0  0  0  0  0  0  0
    5.5404    0.6624   -0.6347 O   0  0  0  0  0  0  0  0  0  0  0  0
    4.4188    0.3864   -1.4821 C   0  0  0  0  0  0  0  0  0  0  0  0
    3.3120    0.1141   -0.5052 C   0  0  0  0  0  0  0  0  0  0  0  0
    1.9800   -0.2064   -0.7667 C   0  0  0  0  0  0  0  0  0  0  0  0
   -5.5143   -0.5532    1.3836 H   0  0  0  0  0  0  0  0  0  0  0  0
   -6.3433   -0.6433   -0.9439 H   0  0  0  0  0  0  0  0  0  0  0  0
   -4.8044   -0.1890   -2.8312 H   0  0  0  0  0  0  0  0  0  0  0  0
   -2.4398    0.3628   -2.4021 H   0  0  0  0  0  0  0  0  0  0  0  0
   -0.7700    1.1934   -0.8290 H   0  0  0  0  0  0  0  0  0  0  0  0
   -1.0471    1.1413    0.9345 H   0  0  0  0  0  0  0  0  0  0  0  0
   -0.4499   -1.3076   -0.8676 H   0  0  0  0  0  0  0  0  0  0  0  0
   -0.7318   -1.3747    0.9006 H   0  0  0  0  0  0  0  0  0  0  0  0
    0.9285   -0.4322    2.4901 H   0  0  0  0  0  0  0  0  0  0  0  0
    3.3177    0.1386    2.8949 H   0  0  0  0  0  0  0  0  0  0  0  0
    4.1821    1.2725   -2.1079 H   0  0  0  0  0  0  0  0  0  0  0  0
    4.6201   -0.5082   -2.1081 H   0  0  0  0  0  0  0  0  0  0  0  0
    1.6281   -0.2831   -1.7880 H   0  0  0  0  0  0  0  0  0  0  0  0
  1  2  1  0
  2  3  2  0
  3  4  1  0
  4  5  2  0
  5  6  1  0
  6  7  2  0
  7  8  1  0
  8  9  1  0
  9 10  1  0
 10 11  1  0
 11 12  2  0
 12 13  1  0
 13 14  1  0
 14 15  2  0
 14 16  1  0
 16 17  1  0
 17 18  1  0
 18 19  1  0
  7  2  1  0
 18 13  2  0
 19 10  2  0
  3 20  1  0
  4 21  1  0
  5 22  1  0
  6 23  1  0
  8 24  1  0
  8 25  1  0
  9 26  1  0
  9 27  1  0
 11 28  1  0
 12 29  1  0
 17 30  1  0
 17 31  1  0
 19 32  1  0
M  RAD  1   1   3
M  END
$$$$
