
     RDKit          3D

 32 34  0  0  0  0  0  0  0  0999 V2000
   -2.5412    0.8703   -2.6907 N   0  0  0  0  0  1  0  0  0  0  0  0
   -3.2501    0.4040   -1.5446 C   0  0  0  0  0  0  0  0  0  0  0  0
   -4.6372    0.5841   -1.4801 C   0  0  0  0  0  0  0  0  0  0  0  0
   -5.3523    0.1500   -0.3614 C   0  0  0  0  0  0  0  0  0  0  0  0
   -4.6844   -0.4623    0.7009 C   0  0  0  0  0  0  0  0  0  0  0  0
   -3.3003   -0.6466    0.6456 C   0  0  0  0  0  0  0  0  0  0  0  0
   -2.5707   -0.2280   -0.4810 C   0  0  0  0  0  0  0  0  0  0  0  0
   -1.0726   -0.4078   -0.5044 C   0  0  0  0  0  0  0  0  0  0  0  0
   -0.3713    0.8379    0.0452 C   0  0  0  0  0  0  0  0  0  0  0  0
    1.1221    0.6584    0.0184 C   0  0  0  0  0  0  0  0  0  0  0  0
    1.8610    1.0206   -1.1348 C   0  0  0  0  0  0  0  0  0  0  0  0
    3.2510    0.8247   -1.1827 C   0  0  0  0  0  0  0  0  0  0  0  0
    3.8691    0.2592   -0.0707 C   0  0  0  0  0  0  0  0  0  0  0  0
    5.2475   -0.0707    0.1800 C   0  0  0  0  0  0  0  0  0  0  0  0
    6.2094    0.1127   -0.6108 O   0  0  0  0  0  0  0  0  0  0  0  0
    5.3685   -0.6333    1.4439 O   0  0  0  0  0  0  0  0  0  0  0  0
    4.0856   -0.7001    2.0780 C   0  0  0  0  0  0  0  0  0  0  0  0
    3.1655   -0.1089    1.0496 C   0  0  0  0  0  0  0  0  0  0  0  0
    1.7848    0.0749    1.1205 C   0  0  0  0  0  0  0  0  0  0  0  0
   -5.1617    1.0649   -2.2963 H   0  0  0  0  0  0  0  0  0  0  0  0
   -6.4242    0.2928   -0.3158 H   0  0  0  0  0  0  0  0  0  0  0  0
   -5.2392   -0.7915    1.5700 H   0  0  0  0  0  0  0  0  0  0  0  0
   -2.7963   -1.1147    1.4823 H   0  0  0  0  0  0  0  0  0  0  0  0
   -0.7282   -0.6098   -1.5421 H   0  0  0  0  0  0  0  0  0  0  0  0
   -0.7892   -1.2934    0.1067 H   0  0  0  0  0  0  0  0  0  0  0  0
   -0.6529    1.7273   -0.5605 H   0  0  0  0  0  0  0  0  0  0  0  0
   -0.7087    1.0281    1.0882 H   0  0  0  0  0  0  0  0  0  0  0  0
    1.3581    1.4500   -1.9924 H   0  0  0  0  0  0  0  0  0  0  0  0
    3.8221    1.1007   -2.0596 H   0  0  0  0  0  0  0  0  0  0  0  0
    3.8145   -1.7562    2.2877 H   0  0  0  0  0  0  0  0  0  0  0  0
    4.0824   -0.0903    3.0058 H   0  0  0  0  0  0  0  0  0  0  0  0
    1.2391   -0.2290    2.0051 H   0  0  0  0  0  0  0  0  0  0  0  0
  1  2  1  0
  2  3  2  0
  3  4  1  0
  4  5  2  0
  5  6  1  0
  6  7  2  0
  7  8  1  0
  8  9  1  0
  9 10  1  0
 10 11  1  0
 11 12  2  0
 12 13  1  0
 13 14  1  0
 14 15  2  0
 14 16  1  0
 16 17  1  0
 17 18  1  0
 18 19  1  0
  7  2  1  0
 18 13  2  0
 19 10  2  0
  3 20  1  0
  4 21  1  0
  5 22  1  0
  6 23  1  0
  8 24  1  0
  8 25  1  0
  9 26  1  0
  9 27  1  0
 11 28  1  0
 12 29  1  0
 17 30  1  0
 17 31  1  0
 19 32  1  0
M  RAD  1   1   3
M  END
$$$$
