
     RDKit          3D

 32 34  0  0  0  0  0  0  0  0999 V2000
    2.7971    1.0185   -2.2518 N   0  0  0  0  0  1  0  0  0  0  0  0
    3.3882    0.5698   -1.0340 C   0  0  0  0  0  0  0  0  0  0  0  0
    4.7393    0.8440   -0.7895 C   0  0  0  0  0  0  0  0  0  0  0  0
    5.3377    0.4287    0.4024 C   0  0  0  0  0  0  0  0  0  0  0  0
    4.5877   -0.2588    1.3586 C   0  0  0  0  0  0  0  0  0  0  0  0
    3.2385   -0.5372    1.1236 C   0  0  0  0  0  0  0  0  0  0  0  0
    2.6280   -0.1382   -0.0784 C   0  0  0  0  0  0  0  0  0  0  0  0
    1.1619   -0.4210   -0.2962 C   0  0  0  0  0  0  0  0  0  0  0  0
    0.3083    0.7567    0.1837 C   0  0  0  0  0  0  0  0  0  0  0  0
   -1.1528    0.4745   -0.0368 C   0  0  0  0  0  0  0  0  0  0  0  0
   -1.7651    0.8170   -1.2676 C   0  0  0  0  0  0  0  0  0  0  0  0
   -3.1201    0.5263   -1.4960 C   0  0  0  0  0  0  0  0  0  0  0  0
   -3.8304   -0.1122   -0.4830 C   0  0  0  0  0  0  0  0  0  0  0  0
   -5.2018   -0.5441   -0.4166 C   0  0  0  0  0  0  0  0  0  0  0  0
   -6.0673   -0.4057   -1.3199 O   0  0  0  0  0  0  0  0  0  0  0  0
   -5.4397   -1.1493    0.8105 O   0  0  0  0  0  0  0  0  0  0  0  0
   -4.2453   -1.1447    1.6016 C   0  0  0  0  0  0  0  0  0  0  0  0
   -3.2486   -0.4620    0.7105 C   0  0  0  0  0  0  0  0  0  0  0  0
   -1.9047   -0.1846    0.9604 C   0  0  0  0  0  0  0  0  0  0  0  0
    5.3261    1.3834   -1.5226 H   0  0  0  0  0  0  0  0  0  0  0  0
    6.3821    0.6444    0.5872 H   0  0  0  0  0  0  0  0  0  0  0  0
    5.0511   -0.5734    2.2848 H   0  0  0  0  0  0  0  0  0  0  0  0
    2.6687   -1.0631    1.8798 H   0  0  0  0  0  0  0  0  0  0  0  0
    0.8688   -1.3413    0.2562 H   0  0  0  0  0  0  0  0  0  0  0  0
    0.9664   -0.6166   -1.3732 H   0  0  0  0  0  0  0  0  0  0  0  0
    0.5986    1.6804   -0.3637 H   0  0  0  0  0  0  0  0  0  0  0  0
    0.4972    0.9399    1.2647 H   0  0  0  0  0  0  0  0  0  0  0  0
   -1.1908    1.3045   -2.0456 H   0  0  0  0  0  0  0  0  0  0  0  0
   -3.5949    0.7866   -2.4331 H   0  0  0  0  0  0  0  0  0  0  0  0
   -4.4031   -0.5627    2.5338 H   0  0  0  0  0  0  0  0  0  0  0  0
   -3.9268   -2.1849    1.8237 H   0  0  0  0  0  0  0  0  0  0  0  0
   -1.4540   -0.4748    1.9013 H   0  0  0  0  0  0  0  0  0  0  0  0
  1  2  1  0
  2  3  2  0
  3  4  1  0
  4  5  2  0
  5  6  1  0
  6  7  2  0
  7  8  1  0
  8  9  1  0
  9 10  1  0
 10 11  1  0
 11 12  2  0
 12 13  1  0
 13 14  1  0
 14 15  2  0
 14 16  1  0
 16 17  1  0
 17 18  1  0
 18 19  1  0
  7  2  1  0
 18 13  2  0
 19 10  2  0
  3 20  1  0
  4 21  1  0
  5 22  1  0
  6 23  1  0
  8 24  1  0
  8 25  1  0
  9 26  1  0
  9 27  1  0
 11 28  1  0
 12 29  1  0
 17 30  1  0
 17 31  1  0
 19 32  1  0
M  RAD  1   1   3
M  END
$$$$
