
     RDKit          3D

 32 34  0  0  0  0  0  0  0  0999 V2000
   -3.2263   -2.3187    0.6734 N   0  0  0  0  0  1  0  0  0  0  0  0
   -2.8956   -0.9373    0.5487 C   0  0  0  0  0  0  0  0  0  0  0  0
   -3.3686   -0.0328    1.5069 C   0  0  0  0  0  0  0  0  0  0  0  0
   -3.0475    1.3235    1.4143 C   0  0  0  0  0  0  0  0  0  0  0  0
   -2.2516    1.7833    0.3635 C   0  0  0  0  0  0  0  0  0  0  0  0
   -1.7772    0.8888   -0.5992 C   0  0  0  0  0  0  0  0  0  0  0  0
   -2.0974   -0.4785   -0.5209 C   0  0  0  0  0  0  0  0  0  0  0  0
   -1.5260   -1.4369   -1.5409 C   0  0  0  0  0  0  0  0  0  0  0  0
   -0.2614   -2.1371   -1.0227 C   0  0  0  0  0  0  0  0  0  0  0  0
    0.8525   -1.1558   -0.7635 C   0  0  0  0  0  0  0  0  0  0  0  0
    1.6503   -0.6875   -1.8361 C   0  0  0  0  0  0  0  0  0  0  0  0
    2.6515    0.2724   -1.6150 C   0  0  0  0  0  0  0  0  0  0  0  0
    2.8250    0.7476   -0.3179 C   0  0  0  0  0  0  0  0  0  0  0  0
    3.7331    1.7277    0.2172 C   0  0  0  0  0  0  0  0  0  0  0  0
    4.6028    2.3652   -0.4321 O   0  0  0  0  0  0  0  0  0  0  0  0
    3.5073    1.8759    1.5795 O   0  0  0  0  0  0  0  0  0  0  0  0
    2.4477    1.0085    2.0001 C   0  0  0  0  0  0  0  0  0  0  0  0
    2.0555    0.3093    0.7312 C   0  0  0  0  0  0  0  0  0  0  0  0
    1.0575   -0.6446    0.5373 C   0  0  0  0  0  0  0  0  0  0  0  0
   -3.9825   -0.3818    2.3279 H   0  0  0  0  0  0  0  0  0  0  0  0
   -3.4129    2.0180    2.1596 H   0  0  0  0  0  0  0  0  0  0  0  0
   -1.9980    2.8334    0.2970 H   0  0  0  0  0  0  0  0  0  0  0  0
   -1.1490    1.2601   -1.3995 H   0  0  0  0  0  0  0  0  0  0  0  0
   -1.2927   -0.9018   -2.4879 H   0  0  0  0  0  0  0  0  0  0  0  0
   -2.2861   -2.2060   -1.7971 H   0  0  0  0  0  0  0  0  0  0  0  0
    0.0730   -2.8797   -1.7793 H   0  0  0  0  0  0  0  0  0  0  0  0
   -0.4975   -2.7077   -0.0980 H   0  0  0  0  0  0  0  0  0  0  0  0
    1.4872   -1.0601   -2.8397 H   0  0  0  0  0  0  0  0  0  0  0  0
    3.2624    0.6373   -2.4304 H   0  0  0  0  0  0  0  0  0  0  0  0
    1.5991    1.6030    2.3993 H   0  0  0  0  0  0  0  0  0  0  0  0
    2.8204    0.2810    2.7514 H   0  0  0  0  0  0  0  0  0  0  0  0
    0.4451   -0.9686    1.3696 H   0  0  0  0  0  0  0  0  0  0  0  0
  1  2  1  0
  2  3  2  0
  3  4  1  0
  4  5  2  0
  5  6  1  0
  6  7  2  0
  7  8  1  0
  8  9  1  0
  9 10  1  0
 10 11  1  0
 11 12  2  0
 12 13  1  0
 13 14  1  0
 14 15  2  0
 14 16  1  0
 16 17  1  0
 17 18  1  0
 18 19  1  0
  7  2  1  0
 18 13  2  0
 19 10  2  0
  3 20  1  0
  4 21  1  0
  5 22  1  0
  6 23  1  0
  8 24  1  0
  8 25  1  0
  9 26  1  0
  9 27  1  0
 11 28  1  0
 12 29  1  0
 17 30  1  0
 17 31  1  0
 19 32  1  0
M  RAD  1   1   3
M  END
$$$$
