
     RDKit          3D

 32 34  0  0  0  0  0  0  0  0999 V2000
   -2.7922    2.5425   -0.1584 N   0  0  0  0  0  1  0  0  0  0  0  0
   -3.3854    1.2457   -0.1621 C   0  0  0  0  0  0  0  0  0  0  0  0
   -4.7600    1.1233    0.0749 C   0  0  0  0  0  0  0  0  0  0  0  0
   -5.3622   -0.1370    0.0917 C   0  0  0  0  0  0  0  0  0  0  0  0
   -4.5931   -1.2822   -0.1238 C   0  0  0  0  0  0  0  0  0  0  0  0
   -3.2205   -1.1701   -0.3614 C   0  0  0  0  0  0  0  0  0  0  0  0
   -2.6046    0.0933   -0.3960 C   0  0  0  0  0  0  0  0  0  0  0  0
   -1.1157    0.1877   -0.6218 C   0  0  0  0  0  0  0  0  0  0  0  0
   -0.3664    0.1867    0.7140 C   0  0  0  0  0  0  0  0  0  0  0  0
    1.1176    0.2840    0.4874 C   0  0  0  0  0  0  0  0  0  0  0  0
    1.7402    1.5528    0.3905 C   0  0  0  0  0  0  0  0  0  0  0  0
    3.1193    1.6543    0.1445 C   0  0  0  0  0  0  0  0  0  0  0  0
    3.8436    0.4751   -0.0081 C   0  0  0  0  0  0  0  0  0  0  0  0
    5.2404    0.2501   -0.2725 C   0  0  0  0  0  0  0  0  0  0  0  0
    6.1206    1.1386   -0.4146 O   0  0  0  0  0  0  0  0  0  0  0  0
    5.4847   -1.1147   -0.3516 O   0  0  0  0  0  0  0  0  0  0  0  0
    4.2697   -1.8451   -0.1457 C   0  0  0  0  0  0  0  0  0  0  0  0
    3.2530   -0.7620    0.0705 C   0  0  0  0  0  0  0  0  0  0  0  0
    1.8853   -0.8884    0.3131 C   0  0  0  0  0  0  0  0  0  0  0  0
   -5.3623    2.0059    0.2506 H   0  0  0  0  0  0  0  0  0  0  0  0
   -6.4248   -0.2263    0.2768 H   0  0  0  0  0  0  0  0  0  0  0  0
   -5.0601   -2.2584   -0.1032 H   0  0  0  0  0  0  0  0  0  0  0  0
   -2.6367   -2.0691   -0.5172 H   0  0  0  0  0  0  0  0  0  0  0  0
   -0.8734    1.1114   -1.1915 H   0  0  0  0  0  0  0  0  0  0  0  0
   -0.7725   -0.6710   -1.2405 H   0  0  0  0  0  0  0  0  0  0  0  0
   -0.6012   -0.7454    1.2743 H   0  0  0  0  0  0  0  0  0  0  0  0
   -0.7073    1.0420    1.3381 H   0  0  0  0  0  0  0  0  0  0  0  0
    1.1556    2.4574    0.5026 H   0  0  0  0  0  0  0  0  0  0  0  0
    3.6020    2.6202    0.0710 H   0  0  0  0  0  0  0  0  0  0  0  0
    4.3556   -2.4896    0.7543 H   0  0  0  0  0  0  0  0  0  0  0  0
    4.0222   -2.4426   -1.0483 H   0  0  0  0  0  0  0  0  0  0  0  0
    1.4288   -1.8691    0.3625 H   0  0  0  0  0  0  0  0  0  0  0  0
  1  2  1  0
  2  3  2  0
  3  4  1  0
  4  5  2  0
  5  6  1  0
  6  7  2  0
  7  8  1  0
  8  9  1  0
  9 10  1  0
 10 11  1  0
 11 12  2  0
 12 13  1  0
 13 14  1  0
 14 15  2  0
 14 16  1  0
 16 17  1  0
 17 18  1  0
 18 19  1  0
  7  2  1  0
 18 13  2  0
 19 10  2  0
  3 20  1  0
  4 21  1  0
  5 22  1  0
  6 23  1  0
  8 24  1  0
  8 25  1  0
  9 26  1  0
  9 27  1  0
 11 28  1  0
 12 29  1  0
 17 30  1  0
 17 31  1  0
 19 32  1  0
M  RAD  1   1   3
M  END
$$$$
