
     RDKit          3D

 32 34  0  0  0  0  0  0  0  0999 V2000
   -2.9672   -2.7278    0.0960 N   0  0  0  0  0  1  0  0  0  0  0  0
   -2.7684   -1.3354    0.3301 C   0  0  0  0  0  0  0  0  0  0  0  0
   -3.2731   -0.7613    1.5030 C   0  0  0  0  0  0  0  0  0  0  0  0
   -3.0799    0.5978    1.7616 C   0  0  0  0  0  0  0  0  0  0  0  0
   -2.3812    1.3906    0.8494 C   0  0  0  0  0  0  0  0  0  0  0  0
   -1.8762    0.8274   -0.3252 C   0  0  0  0  0  0  0  0  0  0  0  0
   -2.0681   -0.5385   -0.6005 C   0  0  0  0  0  0  0  0  0  0  0  0
   -1.4637   -1.1386   -1.8496 C   0  0  0  0  0  0  0  0  0  0  0  0
   -0.1175   -1.8196   -1.5636 C   0  0  0  0  0  0  0  0  0  0  0  0
    0.9152   -0.8330   -1.0828 C   0  0  0  0  0  0  0  0  0  0  0  0
    1.6142   -0.0263   -2.0139 C   0  0  0  0  0  0  0  0  0  0  0  0
    2.5348    0.9383   -1.5728 C   0  0  0  0  0  0  0  0  0  0  0  0
    2.7284    1.0766   -0.2011 C   0  0  0  0  0  0  0  0  0  0  0  0
    3.5701    1.9702    0.5505 C   0  0  0  0  0  0  0  0  0  0  0  0
    4.3461    2.8371    0.0705 O   0  0  0  0  0  0  0  0  0  0  0  0
    3.3990    1.7377    1.9090 O   0  0  0  0  0  0  0  0  0  0  0  0
    2.4434    0.6900    2.1126 C   0  0  0  0  0  0  0  0  0  0  0  0
    2.0538    0.3076    0.7145 C   0  0  0  0  0  0  0  0  0  0  0  0
    1.1371   -0.6581    0.3012 C   0  0  0  0  0  0  0  0  0  0  0  0
   -3.8121   -1.3701    2.2182 H   0  0  0  0  0  0  0  0  0  0  0  0
   -3.4692    1.0359    2.6716 H   0  0  0  0  0  0  0  0  0  0  0  0
   -2.2264    2.4420    1.0546 H   0  0  0  0  0  0  0  0  0  0  0  0
   -1.3239    1.4537   -1.0150 H   0  0  0  0  0  0  0  0  0  0  0  0
   -1.3261   -0.3563   -2.6284 H   0  0  0  0  0  0  0  0  0  0  0  0
   -2.1634   -1.8868   -2.2803 H   0  0  0  0  0  0  0  0  0  0  0  0
    0.2446   -2.3041   -2.4963 H   0  0  0  0  0  0  0  0  0  0  0  0
   -0.2558   -2.6306   -0.8155 H   0  0  0  0  0  0  0  0  0  0  0  0
    1.4362   -0.1409   -3.0758 H   0  0  0  0  0  0  0  0  0  0  0  0
    3.0698    1.5606   -2.2783 H   0  0  0  0  0  0  0  0  0  0  0  0
    2.9163   -0.1662    2.6377 H   0  0  0  0  0  0  0  0  0  0  0  0
    1.5654    1.0736    2.6739 H   0  0  0  0  0  0  0  0  0  0  0  0
    0.5978   -1.2455    1.0338 H   0  0  0  0  0  0  0  0  0  0  0  0
  1  2  1  0
  2  3  2  0
  3  4  1  0
  4  5  2  0
  5  6  1  0
  6  7  2  0
  7  8  1  0
  8  9  1  0
  9 10  1  0
 10 11  1  0
 11 12  2  0
 12 13  1  0
 13 14  1  0
 14 15  2  0
 14 16  1  0
 16 17  1  0
 17 18  1  0
 18 19  1  0
  7  2  1  0
 18 13  2  0
 19 10  2  0
  3 20  1  0
  4 21  1  0
  5 22  1  0
  6 23  1  0
  8 24  1  0
  8 25  1  0
  9 26  1  0
  9 27  1  0
 11 28  1  0
 12 29  1  0
 17 30  1  0
 17 31  1  0
 19 32  1  0
M  RAD  1   1   3
M  END
$$$$
