
     RDKit          3D

 32 34  0  0  0  0  0  0  0  0999 V2000
   -3.1342   -2.1096   -0.2117 N   0  0  0  0  0  1  0  0  0  0  0  0
   -3.5192   -0.7775    0.1212 C   0  0  0  0  0  0  0  0  0  0  0  0
   -4.8709   -0.4195    0.0488 C   0  0  0  0  0  0  0  0  0  0  0  0
   -5.2717    0.8832    0.3550 C   0  0  0  0  0  0  0  0  0  0  0  0
   -4.3232    1.8364    0.7305 C   0  0  0  0  0  0  0  0  0  0  0  0
   -2.9718    1.4885    0.8058 C   0  0  0  0  0  0  0  0  0  0  0  0
   -2.5568    0.1771    0.5150 C   0  0  0  0  0  0  0  0  0  0  0  0
   -1.0887   -0.1670    0.5712 C   0  0  0  0  0  0  0  0  0  0  0  0
   -0.4362    0.0279   -0.8006 C   0  0  0  0  0  0  0  0  0  0  0  0
    1.0267   -0.3185   -0.7438 C   0  0  0  0  0  0  0  0  0  0  0  0
    1.4515   -1.6499   -0.9757 C   0  0  0  0  0  0  0  0  0  0  0  0
    2.8115   -1.9903   -0.8907 C   0  0  0  0  0  0  0  0  0  0  0  0
    3.7170   -0.9842   -0.5648 C   0  0  0  0  0  0  0  0  0  0  0  0
    5.1460   -1.0159   -0.3952 C   0  0  0  0  0  0  0  0  0  0  0  0
    5.8861   -2.0252   -0.5282 O   0  0  0  0  0  0  0  0  0  0  0  0
    5.6021    0.2511   -0.0555 O   0  0  0  0  0  0  0  0  0  0  0  0
    4.5032    1.1675    0.0146 C   0  0  0  0  0  0  0  0  0  0  0  0
    3.3201    0.3082   -0.3248 C   0  0  0  0  0  0  0  0  0  0  0  0
    1.9754    0.6703   -0.4024 C   0  0  0  0  0  0  0  0  0  0  0  0
   -5.6120   -1.1507   -0.2490 H   0  0  0  0  0  0  0  0  0  0  0  0
   -6.3177    1.1553    0.2961 H   0  0  0  0  0  0  0  0  0  0  0  0
   -4.6347    2.8472    0.9603 H   0  0  0  0  0  0  0  0  0  0  0  0
   -2.2477    2.2425    1.0895 H   0  0  0  0  0  0  0  0  0  0  0  0
   -0.5782    0.4783    1.3202 H   0  0  0  0  0  0  0  0  0  0  0  0
   -0.9553   -1.2182    0.9084 H   0  0  0  0  0  0  0  0  0  0  0  0
   -0.5603    1.0841   -1.1276 H   0  0  0  0  0  0  0  0  0  0  0  0
   -0.9442   -0.6132   -1.5543 H   0  0  0  0  0  0  0  0  0  0  0  0
    0.7285   -2.4189   -1.2181 H   0  0  0  0  0  0  0  0  0  0  0  0
    3.1434   -3.0050   -1.0683 H   0  0  0  0  0  0  0  0  0  0  0  0
    4.6290    1.9776   -0.7342 H   0  0  0  0  0  0  0  0  0  0  0  0
    4.4095    1.5781    1.0420 H   0  0  0  0  0  0  0  0  0  0  0  0
    1.6730    1.6904   -0.2006 H   0  0  0  0  0  0  0  0  0  0  0  0
  1  2  1  0
  2  3  2  0
  3  4  1  0
  4  5  2  0
  5  6  1  0
  6  7  2  0
  7  8  1  0
  8  9  1  0
  9 10  1  0
 10 11  1  0
 11 12  2  0
 12 13  1  0
 13 14  1  0
 14 15  2  0
 14 16  1  0
 16 17  1  0
 17 18  1  0
 18 19  1  0
  7  2  1  0
 18 13  2  0
 19 10  2  0
  3 20  1  0
  4 21  1  0
  5 22  1  0
  6 23  1  0
  8 24  1  0
  8 25  1  0
  9 26  1  0
  9 27  1  0
 11 28  1  0
 12 29  1  0
 17 30  1  0
 17 31  1  0
 19 32  1  0
M  RAD  1   1   3
M  END
$$$$
