 xtb: 6.7.1 (edcfbbe)
          07312615153D

242263  0     0  0            999 V2000
    0.1620   -1.7362   -1.0032 N   0  0  0  0  0  0  0  0  0  0  0  0
   -0.0533   -1.0145    1.7467 N   0  0  0  0  0  0  0  0  0  0  0  0
   -0.4477   -1.0067   -3.2972 C   0  0  0  0  0  0  0  0  0  0  0  0
   -0.0017   -1.9522   -2.3464 C   0  0  0  0  0  0  0  0  0  0  0  0
    0.4093   -3.3033   -2.6789 C   0  0  0  0  0  0  0  0  0  0  0  0
    0.3718   -3.7343   -3.6804 H   0  0  0  0  0  0  0  0  0  0  0  0
    0.8477   -3.8782   -1.5194 C   0  0  0  0  0  0  0  0  0  0  0  0
    1.2449   -4.8830   -1.3693 H   0  0  0  0  0  0  0  0  0  0  0  0
    0.6579   -2.9000   -0.4658 C   0  0  0  0  0  0  0  0  0  0  0  0
    0.8571   -3.1668    0.9038 C   0  0  0  0  0  0  0  0  0  0  0  0
    0.4550   -2.2776    1.9201 C   0  0  0  0  0  0  0  0  0  0  0  0
    0.3978   -2.6328    3.3256 C   0  0  0  0  0  0  0  0  0  0  0  0
    0.7400   -3.5837    3.7367 H   0  0  0  0  0  0  0  0  0  0  0  0
   -0.1935   -1.5884    3.9772 C   0  0  0  0  0  0  0  0  0  0  0  0
   -0.4302   -1.4915    5.0376 H   0  0  0  0  0  0  0  0  0  0  0  0
   -0.4594   -0.5699    2.9786 C   0  0  0  0  0  0  0  0  0  0  0  0
    1.4113   -4.5078    1.3069 C   0  0  0  0  0  0  0  0  0  0  0  0
    2.7575   -4.6435    1.7214 C   0  0  0  0  0  0  0  0  0  0  0  0
    3.2837   -5.8909    2.1036 C   0  0  0  0  0  0  0  0  0  0  0  0
    2.4592   -7.0192    2.0639 C   0  0  0  0  0  0  0  0  0  0  0  0
    2.8686   -7.9967    2.3510 H   0  0  0  0  0  0  0  0  0  0  0  0
    1.1244   -6.9251    1.6618 C   0  0  0  0  0  0  0  0  0  0  0  0
    0.6026   -5.6699    1.2954 C   0  0  0  0  0  0  0  0  0  0  0  0
   -0.8219    1.6473    0.9800 N   0  0  0  0  0  0  0  0  0  0  0  0
   -0.5600    0.9375   -1.7514 N   0  0  0  0  0  0  0  0  0  0  0  0
   -1.0227    0.6911    3.2672 C   0  0  0  0  0  0  0  0  0  0  0  0
   -1.1260    1.7294    2.3161 C   0  0  0  0  0  0  0  0  0  0  0  0
   -1.5048    3.0889    2.6451 C   0  0  0  0  0  0  0  0  0  0  0  0
   -1.8127    3.4217    3.6372 H   0  0  0  0  0  0  0  0  0  0  0  0
   -1.3797    3.8247    1.4999 C   0  0  0  0  0  0  0  0  0  0  0  0
   -1.5702    4.8876    1.3536 H   0  0  0  0  0  0  0  0  0  0  0  0
   -0.9879    2.9062    0.4510 C   0  0  0  0  0  0  0  0  0  0  0  0
   -0.8841    3.2517   -0.9103 C   0  0  0  0  0  0  0  0  0  0  0  0
   -0.7650    2.2832   -1.9259 C   0  0  0  0  0  0  0  0  0  0  0  0
   -0.9855    2.5650   -3.3303 C   0  0  0  0  0  0  0  0  0  0  0  0
   -1.1717    3.5582   -3.7404 H   0  0  0  0  0  0  0  0  0  0  0  0
   -0.9644    1.3660   -3.9839 C   0  0  0  0  0  0  0  0  0  0  0  0
   -1.1260    1.1654   -5.0439 H   0  0  0  0  0  0  0  0  0  0  0  0
   -0.6647    0.3522   -2.9901 C   0  0  0  0  0  0  0  0  0  0  0  0
   -0.9712    4.6963   -1.3213 C   0  0  0  0  0  0  0  0  0  0  0  0
    0.2054    5.3893   -1.6990 C   0  0  0  0  0  0  0  0  0  0  0  0
    0.1568    6.7237   -2.1392 C   0  0  0  0  0  0  0  0  0  0  0  0
   -1.0760    7.3825   -2.1787 C   0  0  0  0  0  0  0  0  0  0  0  0
   -1.1185    8.4270   -2.5145 H   0  0  0  0  0  0  0  0  0  0  0  0
   -2.2559    6.7344   -1.8016 C   0  0  0  0  0  0  0  0  0  0  0  0
   -2.2024    5.3894   -1.3895 C   0  0  0  0  0  0  0  0  0  0  0  0
   -0.2223   -0.0066   -0.0037 Fe  0  0  0  0  0  0  0  0  0  0  0  0
   -2.4456   -0.6536    0.0037 Cl  0  0  0  0  0  0  0  0  0  0  0  0
   -1.5936    0.9233    4.6449 C   0  0  0  0  0  0  0  0  0  0  0  0
   -0.8195    1.4871    5.6940 C   0  0  0  0  0  0  0  0  0  0  0  0
   -2.9478    0.5631    4.8926 C   0  0  0  0  0  0  0  0  0  0  0  0
   -1.3864    1.6926    6.9678 C   0  0  0  0  0  0  0  0  0  0  0  0
    0.5239    1.8411    5.4056 N   0  0  0  0  0  0  0  0  0  0  0  0
   -3.5111    0.7936    6.1662 C   0  0  0  0  0  0  0  0  0  0  0  0
   -3.6820   -0.0482    3.8485 N   0  0  0  0  0  0  0  0  0  0  0  0
   -0.7689    2.1142    7.7655 H   0  0  0  0  0  0  0  0  0  0  0  0
   -2.7249    1.3486    7.1794 C   0  0  0  0  0  0  0  0  0  0  0  0
    1.5066    2.2723    6.2679 C   0  0  0  0  0  0  0  0  0  0  0  0
    0.7860    1.7254    4.4250 H   0  0  0  0  0  0  0  0  0  0  0  0
   -4.5590    0.5317    6.3331 H   0  0  0  0  0  0  0  0  0  0  0  0
   -5.0096   -0.4288    3.8483 C   0  0  0  0  0  0  0  0  0  0  0  0
   -3.1599   -0.2346    2.9870 H   0  0  0  0  0  0  0  0  0  0  0  0
   -3.1691    1.5170    8.1690 H   0  0  0  0  0  0  0  0  0  0  0  0
    1.3731    2.4012    7.4799 O   0  0  0  0  0  0  0  0  0  0  0  0
    2.8253    2.5889    5.5943 C   0  0  0  0  0  0  0  0  0  0  0  0
   -5.8010   -0.1828    4.7535 O   0  0  0  0  0  0  0  0  0  0  0  0
   -5.4307   -1.2044    2.6231 C   0  0  0  0  0  0  0  0  0  0  0  0
    4.0921    2.2247    6.3233 C   0  0  0  0  0  0  0  0  0  0  0  0
    2.8681    2.5713    4.5017 H   0  0  0  0  0  0  0  0  0  0  0  0
    3.6661    3.6723    6.2818 C   0  0  0  0  0  0  0  0  0  0  0  0
   -6.7914   -0.9221    2.0364 C   0  0  0  0  0  0  0  0  0  0  0  0
   -4.6533   -1.5248    1.9200 H   0  0  0  0  0  0  0  0  0  0  0  0
   -6.5967   -2.1741    2.8584 C   0  0  0  0  0  0  0  0  0  0  0  0
    3.9851    1.7185    7.2853 H   0  0  0  0  0  0  0  0  0  0  0  0
    4.9501    1.9396    5.7113 H   0  0  0  0  0  0  0  0  0  0  0  0
    3.2385    4.0867    7.1983 H   0  0  0  0  0  0  0  0  0  0  0  0
    4.4295    4.6292    5.4210 C   0  0  0  0  0  0  0  0  0  0  0  0
   -7.3809   -0.1318    2.5096 H   0  0  0  0  0  0  0  0  0  0  0  0
   -6.8886   -1.0292    0.9525 H   0  0  0  0  0  0  0  0  0  0  0  0
   -7.0066   -2.1638    3.8731 H   0  0  0  0  0  0  0  0  0  0  0  0
   -6.5754   -3.5057    2.1863 C   0  0  0  0  0  0  0  0  0  0  0  0
    4.5249    5.8341    6.0063 O   0  0  0  0  0  0  0  0  0  0  0  0
    4.9193    4.3518    4.3423 O   0  0  0  0  0  0  0  0  0  0  0  0
   -7.1739   -4.4408    2.9569 O   0  0  0  0  0  0  0  0  0  0  0  0
   -6.1005   -3.7378    1.0927 O   0  0  0  0  0  0  0  0  0  0  0  0
    5.2546    6.8924    5.3174 C   0  0  0  0  0  0  0  0  0  0  0  0
   -7.2619   -5.7995    2.4433 C   0  0  0  0  0  0  0  0  0  0  0  0
    4.2621    7.7519    4.5230 C   0  0  0  0  0  0  0  0  0  0  0  0
    6.0210    7.6709    6.3857 C   0  0  0  0  0  0  0  0  0  0  0  0
    5.9506    6.3966    4.6174 H   0  0  0  0  0  0  0  0  0  0  0  0
   -7.2407   -6.7294    3.6575 C   0  0  0  0  0  0  0  0  0  0  0  0
   -8.5250   -5.9359    1.5855 C   0  0  0  0  0  0  0  0  0  0  0  0
   -6.3696   -5.9652    1.8100 H   0  0  0  0  0  0  0  0  0  0  0  0
    3.7446    7.1415    3.7647 H   0  0  0  0  0  0  0  0  0  0  0  0
    3.5139    8.1930    5.1948 H   0  0  0  0  0  0  0  0  0  0  0  0
    4.7953    8.5663    4.0139 H   0  0  0  0  0  0  0  0  0  0  0  0
    6.7051    7.0107    6.9340 H   0  0  0  0  0  0  0  0  0  0  0  0
    6.6159    8.4713    5.9256 H   0  0  0  0  0  0  0  0  0  0  0  0
    5.3335    8.1255    7.1103 H   0  0  0  0  0  0  0  0  0  0  0  0
   -6.3220   -6.5803    4.2395 H   0  0  0  0  0  0  0  0  0  0  0  0
   -8.1051   -6.5381    4.3110 H   0  0  0  0  0  0  0  0  0  0  0  0
   -7.2867   -7.7788    3.3354 H   0  0  0  0  0  0  0  0  0  0  0  0
   -8.4817   -5.2465    0.7314 H   0  0  0  0  0  0  0  0  0  0  0  0
   -8.6170   -6.9615    1.2016 H   0  0  0  0  0  0  0  0  0  0  0  0
   -9.4246   -5.7140    2.1797 H   0  0  0  0  0  0  0  0  0  0  0  0
   -0.6952   -1.4993   -4.7012 C   0  0  0  0  0  0  0  0  0  0  0  0
    0.2560   -1.3028   -5.7389 C   0  0  0  0  0  0  0  0  0  0  0  0
   -1.8965   -2.2060   -4.9836 C   0  0  0  0  0  0  0  0  0  0  0  0
    0.0420   -1.8591   -7.0157 C   0  0  0  0  0  0  0  0  0  0  0  0
    1.3966   -0.5149   -5.4406 N   0  0  0  0  0  0  0  0  0  0  0  0
   -2.0987   -2.7665   -6.2627 C   0  0  0  0  0  0  0  0  0  0  0  0
   -2.8744   -2.2780   -3.9641 N   0  0  0  0  0  0  0  0  0  0  0  0
    0.7906   -1.7014   -7.7975 H   0  0  0  0  0  0  0  0  0  0  0  0
   -1.1261   -2.5920   -7.2517 C   0  0  0  0  0  0  0  0  0  0  0  0
    2.3306    0.0172   -6.3027 C   0  0  0  0  0  0  0  0  0  0  0  0
    1.4198   -0.1704   -4.4793 H   0  0  0  0  0  0  0  0  0  0  0  0
   -3.0174   -3.3279   -6.4531 H   0  0  0  0  0  0  0  0  0  0  0  0
   -4.1006   -2.9116   -3.9904 C   0  0  0  0  0  0  0  0  0  0  0  0
   -2.6572   -1.7508   -3.1140 H   0  0  0  0  0  0  0  0  0  0  0  0
   -1.2885   -3.0320   -8.2442 H   0  0  0  0  0  0  0  0  0  0  0  0
    2.4296   -0.2588   -7.4925 O   0  0  0  0  0  0  0  0  0  0  0  0
    3.2311    1.0475   -5.6549 C   0  0  0  0  0  0  0  0  0  0  0  0
   -4.4828   -3.6472   -4.8950 O   0  0  0  0  0  0  0  0  0  0  0  0
   -4.9706   -2.6047   -2.7957 C   0  0  0  0  0  0  0  0  0  0  0  0
    3.5346    2.2851   -6.4632 C   0  0  0  0  0  0  0  0  0  0  0  0
    3.1772    1.1741   -4.5681 H   0  0  0  0  0  0  0  0  0  0  0  0
    4.6146    1.2458   -6.2743 C   0  0  0  0  0  0  0  0  0  0  0  0
   -5.8617   -3.6944   -2.2576 C   0  0  0  0  0  0  0  0  0  0  0  0
   -4.6089   -1.8689   -2.0678 H   0  0  0  0  0  0  0  0  0  0  0  0
   -6.4790   -2.5949   -3.0876 C   0  0  0  0  0  0  0  0  0  0  0  0
    3.0911    2.3452   -7.4606 H   0  0  0  0  0  0  0  0  0  0  0  0
    3.6420    3.2254   -5.9173 H   0  0  0  0  0  0  0  0  0  0  0  0
    4.8547    0.6124   -7.1323 H   0  0  0  0  0  0  0  0  0  0  0  0
    5.7449    1.5747   -5.3498 C   0  0  0  0  0  0  0  0  0  0  0  0
   -5.7948   -4.6708   -2.7446 H   0  0  0  0  0  0  0  0  0  0  0  0
   -6.0355   -3.6888   -1.1783 H   0  0  0  0  0  0  0  0  0  0  0  0
   -6.7531   -2.8478   -4.1164 H   0  0  0  0  0  0  0  0  0  0  0  0
   -7.3226   -1.5497   -2.4363 C   0  0  0  0  0  0  0  0  0  0  0  0
    6.9119    1.1149   -5.8309 O   0  0  0  0  0  0  0  0  0  0  0  0
    5.6272    2.1947   -4.3094 O   0  0  0  0  0  0  0  0  0  0  0  0
   -8.3266   -1.1643   -3.2531 O   0  0  0  0  0  0  0  0  0  0  0  0
   -7.1526   -1.1012   -1.3204 O   0  0  0  0  0  0  0  0  0  0  0  0
    8.1294    1.3697   -5.0696 C   0  0  0  0  0  0  0  0  0  0  0  0
   -9.2531   -0.1511   -2.7688 C   0  0  0  0  0  0  0  0  0  0  0  0
    9.0430    0.1615   -5.2828 C   0  0  0  0  0  0  0  0  0  0  0  0
    8.7393    2.6957   -5.5332 C   0  0  0  0  0  0  0  0  0  0  0  0
    7.8326    1.4522   -4.0065 H   0  0  0  0  0  0  0  0  0  0  0  0
   -8.6953    1.2436   -3.0801 C   0  0  0  0  0  0  0  0  0  0  0  0
  -10.6001   -0.4367   -3.4319 C   0  0  0  0  0  0  0  0  0  0  0  0
   -9.3222   -0.2764   -1.6729 H   0  0  0  0  0  0  0  0  0  0  0  0
    8.5430   -0.7582   -4.9519 H   0  0  0  0  0  0  0  0  0  0  0  0
    9.3079    0.0559   -6.3459 H   0  0  0  0  0  0  0  0  0  0  0  0
    9.9742    0.2851   -4.7134 H   0  0  0  0  0  0  0  0  0  0  0  0
    8.0401    3.5228   -5.3558 H   0  0  0  0  0  0  0  0  0  0  0  0
    9.6664    2.9040   -4.9816 H   0  0  0  0  0  0  0  0  0  0  0  0
    8.9843    2.6575   -6.6058 H   0  0  0  0  0  0  0  0  0  0  0  0
   -7.7298    1.3924   -2.5700 H   0  0  0  0  0  0  0  0  0  0  0  0
   -8.5514    1.3682   -4.1623 H   0  0  0  0  0  0  0  0  0  0  0  0
   -9.3952    2.0166   -2.7334 H   0  0  0  0  0  0  0  0  0  0  0  0
  -10.9465   -1.4512   -3.1894 H   0  0  0  0  0  0  0  0  0  0  0  0
  -11.3589    0.2770   -3.0839 H   0  0  0  0  0  0  0  0  0  0  0  0
  -10.5257   -0.3513   -4.5239 H   0  0  0  0  0  0  0  0  0  0  0  0
    4.3289   -5.9723    2.4240 H   0  0  0  0  0  0  0  0  0  0  0  0
    0.4864   -7.8157    1.6272 H   0  0  0  0  0  0  0  0  0  0  0  0
    1.0737    7.2337   -2.4559 H   0  0  0  0  0  0  0  0  0  0  0  0
   -3.2170    7.2613   -1.8290 H   0  0  0  0  0  0  0  0  0  0  0  0
    3.5002   -3.4836    1.7286 O   0  0  0  0  0  0  0  0  0  0  0  0
   -0.6903   -5.4907    0.8628 O   0  0  0  0  0  0  0  0  0  0  0  0
    1.3609    4.6395   -1.6729 O   0  0  0  0  0  0  0  0  0  0  0  0
   -3.3091    4.6834   -0.9796 O   0  0  0  0  0  0  0  0  0  0  0  0
    4.8390   -3.5126    2.1181 C   0  0  0  0  0  0  0  0  0  0  0  0
    5.8367   -3.8022    1.1766 C   0  0  0  0  0  0  0  0  0  0  0  0
    5.1756   -3.1721    3.4348 C   0  0  0  0  0  0  0  0  0  0  0  0
    7.1820   -3.7573    1.5649 C   0  0  0  0  0  0  0  0  0  0  0  0
    5.5490   -4.0545    0.1504 H   0  0  0  0  0  0  0  0  0  0  0  0
    6.5246   -3.1292    3.8113 C   0  0  0  0  0  0  0  0  0  0  0  0
    4.3738   -2.9407    4.1434 H   0  0  0  0  0  0  0  0  0  0  0  0
    7.5294   -3.4230    2.8804 C   0  0  0  0  0  0  0  0  0  0  0  0
    7.9655   -3.9822    0.8323 H   0  0  0  0  0  0  0  0  0  0  0  0
    6.7933   -2.8632    4.8398 H   0  0  0  0  0  0  0  0  0  0  0  0
    8.5856   -3.3896    3.1796 H   0  0  0  0  0  0  0  0  0  0  0  0
   -1.6585   -6.4719    1.0499 C   0  0  0  0  0  0  0  0  0  0  0  0
   -2.0277   -6.9013    2.3329 C   0  0  0  0  0  0  0  0  0  0  0  0
   -2.3185   -6.9646   -0.0843 C   0  0  0  0  0  0  0  0  0  0  0  0
   -3.0507   -7.8471    2.4726 C   0  0  0  0  0  0  0  0  0  0  0  0
   -1.5148   -6.4887    3.2082 H   0  0  0  0  0  0  0  0  0  0  0  0
   -3.3459   -7.9036    0.0698 C   0  0  0  0  0  0  0  0  0  0  0  0
   -2.0193   -6.5951   -1.0705 H   0  0  0  0  0  0  0  0  0  0  0  0
   -3.7107   -8.3529    1.3453 C   0  0  0  0  0  0  0  0  0  0  0  0
   -3.3393   -8.1880    3.4730 H   0  0  0  0  0  0  0  0  0  0  0  0
   -3.8639   -8.2889   -0.8151 H   0  0  0  0  0  0  0  0  0  0  0  0
   -4.5111   -9.0954    1.4618 H   0  0  0  0  0  0  0  0  0  0  0  0
    2.6313    5.1913   -1.5821 C   0  0  0  0  0  0  0  0  0  0  0  0
    2.9445    6.2651   -0.7318 C   0  0  0  0  0  0  0  0  0  0  0  0
    3.6432    4.5523   -2.3165 C   0  0  0  0  0  0  0  0  0  0  0  0
    4.2712    6.7059   -0.6418 C   0  0  0  0  0  0  0  0  0  0  0  0
    2.1575    6.7438   -0.1415 H   0  0  0  0  0  0  0  0  0  0  0  0
    4.9650    4.9964   -2.2105 C   0  0  0  0  0  0  0  0  0  0  0  0
    3.3862    3.7036   -2.9578 H   0  0  0  0  0  0  0  0  0  0  0  0
    5.2845    6.0796   -1.3794 C   0  0  0  0  0  0  0  0  0  0  0  0
    4.5146    7.5476    0.0190 H   0  0  0  0  0  0  0  0  0  0  0  0
    5.7382    4.4779   -2.7880 H   0  0  0  0  0  0  0  0  0  0  0  0
    6.3203    6.4347   -1.3016 H   0  0  0  0  0  0  0  0  0  0  0  0
   -4.5966    5.0741   -1.3287 C   0  0  0  0  0  0  0  0  0  0  0  0
   -4.9750    5.2663   -2.6654 C   0  0  0  0  0  0  0  0  0  0  0  0
   -5.5419    5.1849   -0.2988 C   0  0  0  0  0  0  0  0  0  0  0  0
   -6.3043    5.5905   -2.9634 C   0  0  0  0  0  0  0  0  0  0  0  0
   -4.2300    5.1543   -3.4603 H   0  0  0  0  0  0  0  0  0  0  0  0
   -6.8695    5.5021   -0.6115 C   0  0  0  0  0  0  0  0  0  0  0  0
   -5.2197    5.0114    0.7328 H   0  0  0  0  0  0  0  0  0  0  0  0
   -7.2545    5.7121   -1.9416 C   0  0  0  0  0  0  0  0  0  0  0  0
   -6.6028    5.7411   -4.0066 H   0  0  0  0  0  0  0  0  0  0  0  0
   -7.6094    5.5874    0.1916 H   0  0  0  0  0  0  0  0  0  0  0  0
   -8.2954    5.9651   -2.1828 H   0  0  0  0  0  0  0  0  0  0  0  0
    1.3482    0.4378    0.0718 N   0  0  0  0  0  0  0  0  0  0  0  0
    2.6124    0.5853    0.3201 C   0  0  0  0  0  0  0  0  0  0  0  0
    3.4709   -0.5489    0.1802 C   0  0  0  0  0  0  0  0  0  0  0  0
    4.8201   -0.4428    0.3886 C   0  0  0  0  0  0  0  0  0  0  0  0
    5.3884    0.7727    0.7586 C   0  0  0  0  0  0  0  0  0  0  0  0
    4.5743    1.8849    0.9069 C   0  0  0  0  0  0  0  0  0  0  0  0
    3.2115    1.8315    0.6931 C   0  0  0  0  0  0  0  0  0  0  0  0
    2.3878    3.0781    0.8336 C   0  0  0  0  0  0  0  0  0  0  0  0
    2.1557    3.4449    2.3036 C   0  0  0  0  0  0  0  0  0  0  0  0
    1.4820    4.7675    2.5776 C   0  0  0  0  0  0  0  0  0  0  0  0
    0.8912    5.5211    1.5779 C   0  0  0  0  0  0  0  0  0  0  0  0
    0.2985    6.7449    1.8454 C   0  0  0  0  0  0  0  0  0  0  0  0
    0.2690    7.2348    3.1372 C   0  0  0  0  0  0  0  0  0  0  0  0
    0.8306    6.4808    4.1541 C   0  0  0  0  0  0  0  0  0  0  0  0
    1.4298    5.2658    3.8764 C   0  0  0  0  0  0  0  0  0  0  0  0
    3.0129   -1.4858   -0.0925 H   0  0  0  0  0  0  0  0  0  0  0  0
    5.4442   -1.3156    0.2711 H   0  0  0  0  0  0  0  0  0  0  0  0
    6.4513    0.8518    0.9225 H   0  0  0  0  0  0  0  0  0  0  0  0
    5.0122    2.8319    1.1876 H   0  0  0  0  0  0  0  0  0  0  0  0
    1.4400    2.9333    0.3172 H   0  0  0  0  0  0  0  0  0  0  0  0
    2.9389    3.8940    0.3645 H   0  0  0  0  0  0  0  0  0  0  0  0
    1.5531    2.6495    2.7542 H   0  0  0  0  0  0  0  0  0  0  0  0
    3.1359    3.4713    2.7887 H   0  0  0  0  0  0  0  0  0  0  0  0
    0.8722    5.1303    0.5809 H   0  0  0  0  0  0  0  0  0  0  0  0
   -0.1511    7.3071    1.0377 H   0  0  0  0  0  0  0  0  0  0  0  0
   -0.1919    8.1873    3.3523 H   0  0  0  0  0  0  0  0  0  0  0  0
    0.8050    6.8394    5.1725 H   0  0  0  0  0  0  0  0  0  0  0  0
    1.8585    4.7035    4.6888 H   0  0  0  0  0  0  0  0  0  0  0  0
  1  4  4  0  0  0  0
  3  4  4  0  0  0  0
  4  5  1  0  0  0  0
  5  6  1  0  0  0  0
  5  7  2  0  0  0  0
  7  8  1  0  0  0  0
  1  9  4  0  0  0  0
  7  9  1  0  0  0  0
  9 10  4  0  0  0  0
  2 11  4  0  0  0  0
 10 11  4  0  0  0  0
 11 12  1  0  0  0  0
 12 13  1  0  0  0  0
 12 14  2  0  0  0  0
 14 15  1  0  0  0  0
  2 16  4  0  0  0  0
 14 16  1  0  0  0  0
 10 17  1  0  0  0  0
 17 18  4  0  0  0  0
 18 19  4  0  0  0  0
 19 20  4  0  0  0  0
 20 21  1  0  0  0  0
 20 22  4  0  0  0  0
 17 23  4  0  0  0  0
 22 23  4  0  0  0  0
 16 26  4  0  0  0  0
 24 27  4  0  0  0  0
 26 27  4  0  0  0  0
 27 28  1  0  0  0  0
 28 29  1  0  0  0  0
 28 30  2  0  0  0  0
 30 31  1  0  0  0  0
 24 32  4  0  0  0  0
 30 32  1  0  0  0  0
 32 33  4  0  0  0  0
 25 34  4  0  0  0  0
 33 34  4  0  0  0  0
 34 35  1  0  0  0  0
 35 36  1  0  0  0  0
 35 37  2  0  0  0  0
 37 38  1  0  0  0  0
  3 39  4  0  0  0  0
 25 39  4  0  0  0  0
 37 39  1  0  0  0  0
 33 40  1  0  0  0  0
 40 41  4  0  0  0  0
 41 42  4  0  0  0  0
 42 43  4  0  0  0  0
 43 44  1  0  0  0  0
 43 45  4  0  0  0  0
 40 46  4  0  0  0  0
 45 46  4  0  0  0  0
  1 47  1  0  0  0  0
  2 47  1  0  0  0  0
 24 47  1  0  0  0  0
 25 47  1  0  0  0  0
 47 48  1  0  0  0  0
 26 49  1  0  0  0  0
 49 50  4  0  0  0  0
 49 51  4  0  0  0  0
 50 52  4  0  0  0  0
 50 53  1  0  0  0  0
 51 54  4  0  0  0  0
 51 55  1  0  0  0  0
 52 56  1  0  0  0  0
 52 57  4  0  0  0  0
 54 57  4  0  0  0  0
 53 58  4  0  0  0  0
 53 59  1  0  0  0  0
 54 60  1  0  0  0  0
 55 61  4  0  0  0  0
 55 62  1  0  0  0  0
 57 63  1  0  0  0  0
 58 64  2  0  0  0  0
 58 65  1  0  0  0  0
 61 66  2  0  0  0  0
 61 67  1  0  0  0  0
 65 68  1  0  0  0  0
 65 69  1  0  0  0  0
 65 70  1  0  0  0  0
 68 70  1  0  0  0  0
 67 71  1  0  0  0  0
 67 72  1  0  0  0  0
 67 73  1  0  0  0  0
 71 73  1  0  0  0  0
 68 74  1  0  0  0  0
 68 75  1  0  0  0  0
 70 76  1  0  0  0  0
 70 77  1  0  0  0  0
 71 78  1  0  0  0  0
 71 79  1  0  0  0  0
 73 80  1  0  0  0  0
 73 81  1  0  0  0  0
 77 82  1  0  0  0  0
 77 83  2  0  0  0  0
 81 84  1  0  0  0  0
 81 85  2  0  0  0  0
 82 86  1  0  0  0  0
 84 87  1  0  0  0  0
 86 88  1  0  0  0  0
 86 89  1  0  0  0  0
 86 90  1  0  0  0  0
 87 91  1  0  0  0  0
 87 92  1  0  0  0  0
 87 93  1  0  0  0  0
 88 94  1  0  0  0  0
 88 95  1  0  0  0  0
 88 96  1  0  0  0  0
 89 97  1  0  0  0  0
 89 98  1  0  0  0  0
 89 99  1  0  0  0  0
 91100  1  0  0  0  0
 91101  1  0  0  0  0
 91102  1  0  0  0  0
 92103  1  0  0  0  0
 92104  1  0  0  0  0
 92105  1  0  0  0  0
  3106  1  0  0  0  0
106107  4  0  0  0  0
106108  4  0  0  0  0
107109  4  0  0  0  0
107110  1  0  0  0  0
108111  4  0  0  0  0
108112  1  0  0  0  0
109113  1  0  0  0  0
109114  4  0  0  0  0
111114  4  0  0  0  0
110115  4  0  0  0  0
110116  1  0  0  0  0
111117  1  0  0  0  0
112118  4  0  0  0  0
112119  1  0  0  0  0
114120  1  0  0  0  0
115121  2  0  0  0  0
115122  1  0  0  0  0
118123  2  0  0  0  0
118124  1  0  0  0  0
122125  1  0  0  0  0
122126  1  0  0  0  0
122127  1  0  0  0  0
125127  1  0  0  0  0
124128  1  0  0  0  0
124129  1  0  0  0  0
124130  1  0  0  0  0
128130  1  0  0  0  0
125131  1  0  0  0  0
125132  1  0  0  0  0
127133  1  0  0  0  0
127134  1  0  0  0  0
128135  1  0  0  0  0
128136  1  0  0  0  0
130137  1  0  0  0  0
130138  1  0  0  0  0
134139  1  0  0  0  0
134140  2  0  0  0  0
138141  1  0  0  0  0
138142  2  0  0  0  0
139143  1  0  0  0  0
141144  1  0  0  0  0
143145  1  0  0  0  0
143146  1  0  0  0  0
143147  1  0  0  0  0
144148  1  0  0  0  0
144149  1  0  0  0  0
144150  1  0  0  0  0
145151  1  0  0  0  0
145152  1  0  0  0  0
145153  1  0  0  0  0
146154  1  0  0  0  0
146155  1  0  0  0  0
146156  1  0  0  0  0
148157  1  0  0  0  0
148158  1  0  0  0  0
148159  1  0  0  0  0
149160  1  0  0  0  0
149161  1  0  0  0  0
149162  1  0  0  0  0
 19163  1  0  0  0  0
 22164  1  0  0  0  0
 42165  1  0  0  0  0
 45166  1  0  0  0  0
 18167  1  0  0  0  0
 23168  1  0  0  0  0
 41169  1  0  0  0  0
 46170  1  0  0  0  0
167171  1  0  0  0  0
171172  4  0  0  0  0
171173  4  0  0  0  0
172174  4  0  0  0  0
172175  1  0  0  0  0
173176  4  0  0  0  0
173177  1  0  0  0  0
174178  4  0  0  0  0
176178  4  0  0  0  0
174179  1  0  0  0  0
176180  1  0  0  0  0
178181  1  0  0  0  0
168182  1  0  0  0  0
182183  4  0  0  0  0
182184  4  0  0  0  0
183185  4  0  0  0  0
183186  1  0  0  0  0
184187  4  0  0  0  0
184188  1  0  0  0  0
185189  4  0  0  0  0
187189  4  0  0  0  0
185190  1  0  0  0  0
187191  1  0  0  0  0
189192  1  0  0  0  0
169193  1  0  0  0  0
193194  4  0  0  0  0
193195  4  0  0  0  0
194196  4  0  0  0  0
194197  1  0  0  0  0
195198  4  0  0  0  0
195199  1  0  0  0  0
196200  4  0  0  0  0
198200  4  0  0  0  0
196201  1  0  0  0  0
198202  1  0  0  0  0
200203  1  0  0  0  0
170204  1  0  0  0  0
204205  4  0  0  0  0
204206  4  0  0  0  0
205207  4  0  0  0  0
205208  1  0  0  0  0
206209  4  0  0  0  0
206210  1  0  0  0  0
207211  4  0  0  0  0
209211  4  0  0  0  0
207212  1  0  0  0  0
209213  1  0  0  0  0
211214  1  0  0  0  0
 47215  2  0  0  0  0
215216  4  0  0  0  0
216217  1  0  0  0  0
217218  2  0  0  0  0
218219  4  0  0  0  0
219220  4  0  0  0  0
216221  1  0  0  0  0
220221  4  0  0  0  0
221222  1  0  0  0  0
222223  1  0  0  0  0
223224  1  0  0  0  0
224225  4  0  0  0  0
225226  4  0  0  0  0
226227  4  0  0  0  0
227228  4  0  0  0  0
224229  4  0  0  0  0
228229  4  0  0  0  0
217230  1  0  0  0  0
218231  1  0  0  0  0
219232  1  0  0  0  0
220233  1  0  0  0  0
222234  1  0  0  0  0
222235  1  0  0  0  0
223236  1  0  0  0  0
223237  1  0  0  0  0
225238  1  0  0  0  0
226239  1  0  0  0  0
227240  1  0  0  0  0
228241  1  0  0  0  0
229242  1  0  0  0  0
M  END
