
     RDKit          3D

 28 29  0  0  0  0  0  0  0  0999 V2000
   -0.6393    2.8329    1.7408 N   0  0  0  0  0  1  0  0  0  0  0  0
   -1.9875    2.5376    0.7023 S   0  0  0  0  0  0  0  0  0  0  0  0
   -3.2439    2.9260    1.4303 O   0  0  0  0  0  0  0  0  0  0  0  0
   -1.8726    3.3836   -0.5345 O   0  0  0  0  0  0  0  0  0  0  0  0
   -2.0417    0.8241    0.2493 C   0  0  0  0  0  0  0  0  0  0  0  0
   -3.1583    0.0675    0.6457 C   0  0  0  0  0  0  0  0  0  0  0  0
   -3.2810   -1.2727    0.2795 C   0  0  0  0  0  0  0  0  0  0  0  0
   -2.2950   -1.8785   -0.4964 C   0  0  0  0  0  0  0  0  0  0  0  0
   -2.4595   -3.5601   -0.9682 Cl  0  0  0  0  0  0  0  0  0  0  0  0
   -1.1765   -1.1466   -0.8975 C   0  0  0  0  0  0  0  0  0  0  0  0
   -1.0189    0.2010   -0.5186 C   0  0  0  0  0  0  0  0  0  0  0  0
    0.2312    0.9244   -0.9804 C   0  0  0  0  0  0  0  0  0  0  0  0
    1.4765    0.2356   -0.4796 C   0  0  0  0  0  0  0  0  0  0  0  0
    1.7964    0.2591    0.8885 C   0  0  0  0  0  0  0  0  0  0  0  0
    2.9424   -0.3911    1.3563 C   0  0  0  0  0  0  0  0  0  0  0  0
    3.7755   -1.0709    0.4640 C   0  0  0  0  0  0  0  0  0  0  0  0
    3.4631   -1.1031   -0.8976 C   0  0  0  0  0  0  0  0  0  0  0  0
    2.3180   -0.4541   -1.3699 C   0  0  0  0  0  0  0  0  0  0  0  0
   -3.9470    0.5141    1.2364 H   0  0  0  0  0  0  0  0  0  0  0  0
   -4.1499   -1.8373    0.5932 H   0  0  0  0  0  0  0  0  0  0  0  0
   -0.4216   -1.6327   -1.5037 H   0  0  0  0  0  0  0  0  0  0  0  0
    0.2240    0.9600   -2.0916 H   0  0  0  0  0  0  0  0  0  0  0  0
    0.2703    1.9769   -0.6450 H   0  0  0  0  0  0  0  0  0  0  0  0
    1.1561    0.7743    1.5920 H   0  0  0  0  0  0  0  0  0  0  0  0
    3.1832   -0.3699    2.4113 H   0  0  0  0  0  0  0  0  0  0  0  0
    4.6618   -1.5746    0.8278 H   0  0  0  0  0  0  0  0  0  0  0  0
    4.1075   -1.6326   -1.5874 H   0  0  0  0  0  0  0  0  0  0  0  0
    2.0869   -0.4931   -2.4271 H   0  0  0  0  0  0  0  0  0  0  0  0
  1  2  1  0
  2  3  2  0
  2  4  2  0
  2  5  1  0
  5  6  1  0
  6  7  2  0
  7  8  1  0
  8  9  1  0
  8 10  2  0
 10 11  1  0
 11 12  1  0
 12 13  1  0
 13 14  2  0
 14 15  1  0
 15 16  2  0
 16 17  1  0
 17 18  2  0
 11  5  2  0
 18 13  1  0
  6 19  1  0
  7 20  1  0
 10 21  1  0
 12 22  1  0
 12 23  1  0
 14 24  1  0
 15 25  1  0
 16 26  1  0
 17 27  1  0
 18 28  1  0
M  RAD  1   1   3
M  END
$$$$
