
     RDKit          3D

 28 29  0  0  0  0  0  0  0  0999 V2000
   -1.1421    3.0113    1.1337 N   0  0  0  0  0  1  0  0  0  0  0  0
   -2.3718    2.3007    0.1507 S   0  0  0  0  0  0  0  0  0  0  0  0
   -2.3096    2.8745   -1.2369 O   0  0  0  0  0  0  0  0  0  0  0  0
   -3.7108    2.6365    0.7457 O   0  0  0  0  0  0  0  0  0  0  0  0
   -2.1522    0.5426    0.0789 C   0  0  0  0  0  0  0  0  0  0  0  0
   -3.1687   -0.2754    0.6021 C   0  0  0  0  0  0  0  0  0  0  0  0
   -3.0756   -1.6653    0.5323 C   0  0  0  0  0  0  0  0  0  0  0  0
   -1.9697   -2.2626   -0.0689 C   0  0  0  0  0  0  0  0  0  0  0  0
   -1.8624   -4.0107   -0.1687 Cl  0  0  0  0  0  0  0  0  0  0  0  0
   -0.9474   -1.4690   -0.5913 C   0  0  0  0  0  0  0  0  0  0  0  0
   -1.0079   -0.0640   -0.5099 C   0  0  0  0  0  0  0  0  0  0  0  0
    0.1491    0.7288   -1.0863 C   0  0  0  0  0  0  0  0  0  0  0  0
    1.4500    0.3600   -0.4173 C   0  0  0  0  0  0  0  0  0  0  0  0
    1.6844    0.7201    0.9207 C   0  0  0  0  0  0  0  0  0  0  0  0
    2.8835    0.3665    1.5467 C   0  0  0  0  0  0  0  0  0  0  0  0
    3.8557   -0.3502    0.8441 C   0  0  0  0  0  0  0  0  0  0  0  0
    3.6296   -0.7160   -0.4855 C   0  0  0  0  0  0  0  0  0  0  0  0
    2.4318   -0.3644   -1.1155 C   0  0  0  0  0  0  0  0  0  0  0  0
   -4.0461    0.1593    1.0621 H   0  0  0  0  0  0  0  0  0  0  0  0
   -3.8704   -2.2775    0.9394 H   0  0  0  0  0  0  0  0  0  0  0  0
   -0.0967   -1.9503   -1.0586 H   0  0  0  0  0  0  0  0  0  0  0  0
    0.2005    0.5279   -2.1786 H   0  0  0  0  0  0  0  0  0  0  0  0
    0.0166    1.8215   -0.9864 H   0  0  0  0  0  0  0  0  0  0  0  0
    0.9372    1.2676    1.4796 H   0  0  0  0  0  0  0  0  0  0  0  0
    3.0580    0.6461    2.5776 H   0  0  0  0  0  0  0  0  0  0  0  0
    4.7831   -0.6240    1.3304 H   0  0  0  0  0  0  0  0  0  0  0  0
    4.3821   -1.2738   -1.0277 H   0  0  0  0  0  0  0  0  0  0  0  0
    2.2696   -0.6602   -2.1445 H   0  0  0  0  0  0  0  0  0  0  0  0
  1  2  1  0
  2  3  2  0
  2  4  2  0
  2  5  1  0
  5  6  1  0
  6  7  2  0
  7  8  1  0
  8  9  1  0
  8 10  2  0
 10 11  1  0
 11 12  1  0
 12 13  1  0
 13 14  2  0
 14 15  1  0
 15 16  2  0
 16 17  1  0
 17 18  2  0
 11  5  2  0
 18 13  1  0
  6 19  1  0
  7 20  1  0
 10 21  1  0
 12 22  1  0
 12 23  1  0
 14 24  1  0
 15 25  1  0
 16 26  1  0
 17 27  1  0
 18 28  1  0
M  RAD  1   1   3
M  END
$$$$
