
     RDKit          3D

 28 29  0  0  0  0  0  0  0  0999 V2000
   -2.5606   -0.4400   -3.2160 N   0  0  0  0  0  1  0  0  0  0  0  0
   -1.3081   -0.7342   -2.0614 S   0  0  0  0  0  0  0  0  0  0  0  0
   -0.0745    0.0017   -2.4999 O   0  0  0  0  0  0  0  0  0  0  0  0
   -1.0388   -2.2118   -2.0397 O   0  0  0  0  0  0  0  0  0  0  0  0
   -1.8042   -0.1642   -0.4559 C   0  0  0  0  0  0  0  0  0  0  0  0
   -2.9471    0.6493   -0.3672 C   0  0  0  0  0  0  0  0  0  0  0  0
   -3.3785    1.1468    0.8622 C   0  0  0  0  0  0  0  0  0  0  0  0
   -2.6721    0.8463    2.0247 C   0  0  0  0  0  0  0  0  0  0  0  0
   -3.2128    1.4808    3.5683 Cl  0  0  0  0  0  0  0  0  0  0  0  0
   -1.5307    0.0459    1.9594 C   0  0  0  0  0  0  0  0  0  0  0  0
   -1.0797   -0.4718    0.7296 C   0  0  0  0  0  0  0  0  0  0  0  0
    0.1808   -1.3140    0.7329 C   0  0  0  0  0  0  0  0  0  0  0  0
    1.3747   -0.5588    0.2037 C   0  0  0  0  0  0  0  0  0  0  0  0
    1.7313    0.6895    0.7458 C   0  0  0  0  0  0  0  0  0  0  0  0
    2.8564    1.3700    0.2707 C   0  0  0  0  0  0  0  0  0  0  0  0
    3.6439    0.8051   -0.7356 C   0  0  0  0  0  0  0  0  0  0  0  0
    3.3119   -0.4450   -1.2635 C   0  0  0  0  0  0  0  0  0  0  0  0
    2.1878   -1.1296   -0.7914 C   0  0  0  0  0  0  0  0  0  0  0  0
   -3.5103    0.9106   -1.2527 H   0  0  0  0  0  0  0  0  0  0  0  0
   -4.2615    1.7715    0.9083 H   0  0  0  0  0  0  0  0  0  0  0  0
   -0.9895   -0.1675    2.8733 H   0  0  0  0  0  0  0  0  0  0  0  0
    0.0079   -2.2495    0.1654 H   0  0  0  0  0  0  0  0  0  0  0  0
    0.4232   -1.6488    1.7650 H   0  0  0  0  0  0  0  0  0  0  0  0
    1.1398    1.1361    1.5348 H   0  0  0  0  0  0  0  0  0  0  0  0
    3.1204    2.3340    0.6861 H   0  0  0  0  0  0  0  0  0  0  0  0
    4.5150    1.3330   -1.1015 H   0  0  0  0  0  0  0  0  0  0  0  0
    3.9273   -0.8855   -2.0372 H   0  0  0  0  0  0  0  0  0  0  0  0
    1.9479   -2.0998   -1.2083 H   0  0  0  0  0  0  0  0  0  0  0  0
  1  2  1  0
  2  3  2  0
  2  4  2  0
  2  5  1  0
  5  6  1  0
  6  7  2  0
  7  8  1  0
  8  9  1  0
  8 10  2  0
 10 11  1  0
 11 12  1  0
 12 13  1  0
 13 14  2  0
 14 15  1  0
 15 16  2  0
 16 17  1  0
 17 18  2  0
 11  5  2  0
 18 13  1  0
  6 19  1  0
  7 20  1  0
 10 21  1  0
 12 22  1  0
 12 23  1  0
 14 24  1  0
 15 25  1  0
 16 26  1  0
 17 27  1  0
 18 28  1  0
M  RAD  1   1   3
M  END
$$$$
