
     RDKit          3D

 28 29  0  0  0  0  0  0  0  0999 V2000
   -2.8056   -2.8398   -0.9864 N   0  0  0  0  0  1  0  0  0  0  0  0
   -1.5074   -2.0394   -0.1726 S   0  0  0  0  0  0  0  0  0  0  0  0
   -1.3694   -2.6538    1.1912 O   0  0  0  0  0  0  0  0  0  0  0  0
   -0.2466   -2.2572   -0.9591 O   0  0  0  0  0  0  0  0  0  0  0  0
   -1.8389   -0.3007   -0.0457 C   0  0  0  0  0  0  0  0  0  0  0  0
   -2.8962    0.2279   -0.8062 C   0  0  0  0  0  0  0  0  0  0  0  0
   -3.1957    1.5895   -0.7671 C   0  0  0  0  0  0  0  0  0  0  0  0
   -2.4402    2.4490    0.0274 C   0  0  0  0  0  0  0  0  0  0  0  0
   -2.8145    4.1624    0.0676 Cl  0  0  0  0  0  0  0  0  0  0  0  0
   -1.3815    1.9470    0.7857 C   0  0  0  0  0  0  0  0  0  0  0  0
   -1.0643    0.5749    0.7657 C   0  0  0  0  0  0  0  0  0  0  0  0
    0.1137    0.1060    1.5968 C   0  0  0  0  0  0  0  0  0  0  0  0
    1.3305   -0.1821    0.7529 C   0  0  0  0  0  0  0  0  0  0  0  0
    1.8330    0.7866   -0.1349 C   0  0  0  0  0  0  0  0  0  0  0  0
    2.9786    0.5236   -0.8921 C   0  0  0  0  0  0  0  0  0  0  0  0
    3.6414   -0.6989   -0.7584 C   0  0  0  0  0  0  0  0  0  0  0  0
    3.1641   -1.6580    0.1383 C   0  0  0  0  0  0  0  0  0  0  0  0
    2.0190   -1.3995    0.8978 C   0  0  0  0  0  0  0  0  0  0  0  0
   -3.4938   -0.4108   -1.4421 H   0  0  0  0  0  0  0  0  0  0  0  0
   -4.0145    1.9761   -1.3606 H   0  0  0  0  0  0  0  0  0  0  0  0
   -0.7996    2.6335    1.3887 H   0  0  0  0  0  0  0  0  0  0  0  0
   -0.1803   -0.7755    2.1998 H   0  0  0  0  0  0  0  0  0  0  0  0
    0.3961    0.8794    2.3439 H   0  0  0  0  0  0  0  0  0  0  0  0
    1.3394    1.7441   -0.2416 H   0  0  0  0  0  0  0  0  0  0  0  0
    3.3551    1.2700   -1.5796 H   0  0  0  0  0  0  0  0  0  0  0  0
    4.5286   -0.9004   -1.3448 H   0  0  0  0  0  0  0  0  0  0  0  0
    3.6831   -2.6015    0.2470 H   0  0  0  0  0  0  0  0  0  0  0  0
    1.6658   -2.1522    1.5916 H   0  0  0  0  0  0  0  0  0  0  0  0
  1  2  1  0
  2  3  2  0
  2  4  2  0
  2  5  1  0
  5  6  1  0
  6  7  2  0
  7  8  1  0
  8  9  1  0
  8 10  2  0
 10 11  1  0
 11 12  1  0
 12 13  1  0
 13 14  2  0
 14 15  1  0
 15 16  2  0
 16 17  1  0
 17 18  2  0
 11  5  2  0
 18 13  1  0
  6 19  1  0
  7 20  1  0
 10 21  1  0
 12 22  1  0
 12 23  1  0
 14 24  1  0
 15 25  1  0
 16 26  1  0
 17 27  1  0
 18 28  1  0
M  RAD  1   1   3
M  END
$$$$
