
     RDKit          3D

 28 29  0  0  0  0  0  0  0  0999 V2000
   -1.0487   -1.4561    2.8928 N   0  0  0  0  0  1  0  0  0  0  0  0
   -2.3609   -1.4921    1.7701 S   0  0  0  0  0  0  0  0  0  0  0  0
   -2.4297   -2.8406    1.1102 O   0  0  0  0  0  0  0  0  0  0  0  0
   -3.6406   -1.2653    2.5254 O   0  0  0  0  0  0  0  0  0  0  0  0
   -2.1409   -0.2361    0.5378 C   0  0  0  0  0  0  0  0  0  0  0  0
   -3.1011    0.7873    0.4540 C   0  0  0  0  0  0  0  0  0  0  0  0
   -3.0086    1.7768   -0.5245 C   0  0  0  0  0  0  0  0  0  0  0  0
   -1.9604    1.7567   -1.4421 C   0  0  0  0  0  0  0  0  0  0  0  0
   -1.8550    2.9940   -2.6812 Cl  0  0  0  0  0  0  0  0  0  0  0  0
   -0.9943    0.7518   -1.3744 C   0  0  0  0  0  0  0  0  0  0  0  0
   -1.0533   -0.2434   -0.3792 C   0  0  0  0  0  0  0  0  0  0  0  0
    0.0419   -1.2920   -0.3613 C   0  0  0  0  0  0  0  0  0  0  0  0
    1.4008   -0.6588   -0.1924 C   0  0  0  0  0  0  0  0  0  0  0  0
    2.3170   -0.6394   -1.2584 C   0  0  0  0  0  0  0  0  0  0  0  0
    3.5695   -0.0381   -1.1003 C   0  0  0  0  0  0  0  0  0  0  0  0
    3.9159    0.5495    0.1193 C   0  0  0  0  0  0  0  0  0  0  0  0
    3.0096    0.5382    1.1828 C   0  0  0  0  0  0  0  0  0  0  0  0
    1.7562   -0.0620    1.0292 C   0  0  0  0  0  0  0  0  0  0  0  0
   -3.9342    0.8213    1.1435 H   0  0  0  0  0  0  0  0  0  0  0  0
   -3.7596    2.5551   -0.5733 H   0  0  0  0  0  0  0  0  0  0  0  0
   -0.1883    0.7496   -2.0983 H   0  0  0  0  0  0  0  0  0  0  0  0
   -0.0856   -2.0365    0.4456 H   0  0  0  0  0  0  0  0  0  0  0  0
   -0.0070   -1.8647   -1.3130 H   0  0  0  0  0  0  0  0  0  0  0  0
    2.0617   -1.0855   -2.2116 H   0  0  0  0  0  0  0  0  0  0  0  0
    4.2712   -0.0260   -1.9244 H   0  0  0  0  0  0  0  0  0  0  0  0
    4.8855    1.0152    0.2395 H   0  0  0  0  0  0  0  0  0  0  0  0
    3.2774    0.9968    2.1259 H   0  0  0  0  0  0  0  0  0  0  0  0
    1.0614   -0.0557    1.8584 H   0  0  0  0  0  0  0  0  0  0  0  0
  1  2  1  0
  2  3  2  0
  2  4  2  0
  2  5  1  0
  5  6  1  0
  6  7  2  0
  7  8  1  0
  8  9  1  0
  8 10  2  0
 10 11  1  0
 11 12  1  0
 12 13  1  0
 13 14  2  0
 14 15  1  0
 15 16  2  0
 16 17  1  0
 17 18  2  0
 11  5  2  0
 18 13  1  0
  6 19  1  0
  7 20  1  0
 10 21  1  0
 12 22  1  0
 12 23  1  0
 14 24  1  0
 15 25  1  0
 16 26  1  0
 17 27  1  0
 18 28  1  0
M  RAD  1   1   3
M  END
$$$$
