
     RDKit          3D

 28 29  0  0  0  0  0  0  0  0999 V2000
   -2.2059   -3.1630   -1.4907 N   0  0  0  0  0  1  0  0  0  0  0  0
   -1.0779   -2.2416   -0.5597 S   0  0  0  0  0  0  0  0  0  0  0  0
   -0.7969   -2.9996    0.7063 O   0  0  0  0  0  0  0  0  0  0  0  0
    0.1870   -2.0933   -1.3558 O   0  0  0  0  0  0  0  0  0  0  0  0
   -1.7449   -0.6382   -0.1948 C   0  0  0  0  0  0  0  0  0  0  0  0
   -2.8993   -0.2297   -0.8850 C   0  0  0  0  0  0  0  0  0  0  0  0
   -3.4619    1.0263   -0.6594 C   0  0  0  0  0  0  0  0  0  0  0  0
   -2.8777    1.8999    0.2551 C   0  0  0  0  0  0  0  0  0  0  0  0
   -3.5833    3.4824    0.5302 Cl  0  0  0  0  0  0  0  0  0  0  0  0
   -1.7274    1.5179    0.9468 C   0  0  0  0  0  0  0  0  0  0  0  0
   -1.1450    0.2525    0.7389 C   0  0  0  0  0  0  0  0  0  0  0  0
    0.1170   -0.0838    1.5086 C   0  0  0  0  0  0  0  0  0  0  0  0
    1.3517   -0.0046    0.6453 C   0  0  0  0  0  0  0  0  0  0  0  0
    2.2702   -1.0690    0.6261 C   0  0  0  0  0  0  0  0  0  0  0  0
    3.4302   -0.9870   -0.1501 C   0  0  0  0  0  0  0  0  0  0  0  0
    3.6922    0.1628   -0.8992 C   0  0  0  0  0  0  0  0  0  0  0  0
    2.7980    1.2358   -0.8679 C   0  0  0  0  0  0  0  0  0  0  0  0
    1.6366    1.1583   -0.0933 C   0  0  0  0  0  0  0  0  0  0  0  0
   -3.3696   -0.8799   -1.6101 H   0  0  0  0  0  0  0  0  0  0  0  0
   -4.3513    1.3212   -1.2016 H   0  0  0  0  0  0  0  0  0  0  0  0
   -1.2824    2.2158    1.6458 H   0  0  0  0  0  0  0  0  0  0  0  0
    0.0141   -1.0812    1.9796 H   0  0  0  0  0  0  0  0  0  0  0  0
    0.2538    0.6189    2.3591 H   0  0  0  0  0  0  0  0  0  0  0  0
    2.0854   -1.9657    1.2044 H   0  0  0  0  0  0  0  0  0  0  0  0
    4.1276   -1.8144   -0.1687 H   0  0  0  0  0  0  0  0  0  0  0  0
    4.5912    0.2249   -1.4987 H   0  0  0  0  0  0  0  0  0  0  0  0
    3.0071    2.1301   -1.4405 H   0  0  0  0  0  0  0  0  0  0  0  0
    0.9613    2.0040   -0.0705 H   0  0  0  0  0  0  0  0  0  0  0  0
  1  2  1  0
  2  3  2  0
  2  4  2  0
  2  5  1  0
  5  6  1  0
  6  7  2  0
  7  8  1  0
  8  9  1  0
  8 10  2  0
 10 11  1  0
 11 12  1  0
 12 13  1  0
 13 14  2  0
 14 15  1  0
 15 16  2  0
 16 17  1  0
 17 18  2  0
 11  5  2  0
 18 13  1  0
  6 19  1  0
  7 20  1  0
 10 21  1  0
 12 22  1  0
 12 23  1  0
 14 24  1  0
 15 25  1  0
 16 26  1  0
 17 27  1  0
 18 28  1  0
M  RAD  1   1   3
M  END
$$$$
