
     RDKit          3D

 28 29  0  0  0  0  0  0  0  0999 V2000
   -1.0699   -0.8125    3.1278 N   0  0  0  0  0  1  0  0  0  0  0  0
   -2.3191   -1.2300    2.0104 S   0  0  0  0  0  0  0  0  0  0  0  0
   -3.6479   -0.9436    2.6523 O   0  0  0  0  0  0  0  0  0  0  0  0
   -2.2495   -2.6974    1.6936 O   0  0  0  0  0  0  0  0  0  0  0  0
   -2.1392   -0.2890    0.5183 C   0  0  0  0  0  0  0  0  0  0  0  0
   -3.1718    0.5964    0.1632 C   0  0  0  0  0  0  0  0  0  0  0  0
   -3.1102    1.3289   -1.0221 C   0  0  0  0  0  0  0  0  0  0  0  0
   -2.0203    1.1834   -1.8779 C   0  0  0  0  0  0  0  0  0  0  0  0
   -1.9527    2.0947   -3.3754 Cl  0  0  0  0  0  0  0  0  0  0  0  0
   -0.9825    0.3127   -1.5426 C   0  0  0  0  0  0  0  0  0  0  0  0
   -1.0112   -0.4185   -0.3388 C   0  0  0  0  0  0  0  0  0  0  0  0
    0.1610   -1.3321   -0.0377 C   0  0  0  0  0  0  0  0  0  0  0  0
    1.4560   -0.5597    0.0118 C   0  0  0  0  0  0  0  0  0  0  0  0
    2.4185   -0.7139   -1.0012 C   0  0  0  0  0  0  0  0  0  0  0  0
    3.6106    0.0157   -0.9576 C   0  0  0  0  0  0  0  0  0  0  0  0
    3.8501    0.9047    0.0936 C   0  0  0  0  0  0  0  0  0  0  0  0
    2.8970    1.0671    1.1024 C   0  0  0  0  0  0  0  0  0  0  0  0
    1.7036    0.3396    1.0628 C   0  0  0  0  0  0  0  0  0  0  0  0
   -4.0375    0.7200    0.8003 H   0  0  0  0  0  0  0  0  0  0  0  0
   -3.9169    2.0040   -1.2784 H   0  0  0  0  0  0  0  0  0  0  0  0
   -0.1448    0.2092   -2.2216 H   0  0  0  0  0  0  0  0  0  0  0  0
    0.0534   -1.8714    0.9211 H   0  0  0  0  0  0  0  0  0  0  0  0
    0.2035   -2.1167   -0.8241 H   0  0  0  0  0  0  0  0  0  0  0  0
    2.2457   -1.3946   -1.8254 H   0  0  0  0  0  0  0  0  0  0  0  0
    4.3483   -0.1069   -1.7401 H   0  0  0  0  0  0  0  0  0  0  0  0
    4.7730    1.4693    0.1252 H   0  0  0  0  0  0  0  0  0  0  0  0
    3.0818    1.7586    1.9142 H   0  0  0  0  0  0  0  0  0  0  0  0
    0.9711    0.4818    1.8461 H   0  0  0  0  0  0  0  0  0  0  0  0
  1  2  1  0
  2  3  2  0
  2  4  2  0
  2  5  1  0
  5  6  1  0
  6  7  2  0
  7  8  1  0
  8  9  1  0
  8 10  2  0
 10 11  1  0
 11 12  1  0
 12 13  1  0
 13 14  2  0
 14 15  1  0
 15 16  2  0
 16 17  1  0
 17 18  2  0
 11  5  2  0
 18 13  1  0
  6 19  1  0
  7 20  1  0
 10 21  1  0
 12 22  1  0
 12 23  1  0
 14 24  1  0
 15 25  1  0
 16 26  1  0
 17 27  1  0
 18 28  1  0
M  RAD  1   1   3
M  END
$$$$
