
     RDKit          3D

 28 29  0  0  0  0  0  0  0  0999 V2000
   -2.8012   -0.5379    2.9928 N   0  0  0  0  0  1  0  0  0  0  0  0
   -1.5793   -0.8519    1.8110 S   0  0  0  0  0  0  0  0  0  0  0  0
   -0.2390   -0.5646    2.4247 O   0  0  0  0  0  0  0  0  0  0  0  0
   -1.6656   -2.3031    1.4328 O   0  0  0  0  0  0  0  0  0  0  0  0
   -1.8183    0.1814    0.3884 C   0  0  0  0  0  0  0  0  0  0  0  0
   -2.7283    1.2478    0.4912 C   0  0  0  0  0  0  0  0  0  0  0  0
   -2.9468    2.1091   -0.5837 C   0  0  0  0  0  0  0  0  0  0  0  0
   -2.2552    1.9249   -1.7789 C   0  0  0  0  0  0  0  0  0  0  0  0
   -2.5264    3.0154   -3.1261 Cl  0  0  0  0  0  0  0  0  0  0  0  0
   -1.3420    0.8767   -1.9012 C   0  0  0  0  0  0  0  0  0  0  0  0
   -1.1093   -0.0085   -0.8307 C   0  0  0  0  0  0  0  0  0  0  0  0
   -0.0859   -1.1093   -1.0289 C   0  0  0  0  0  0  0  0  0  0  0  0
    1.2144   -0.8152   -0.3228 C   0  0  0  0  0  0  0  0  0  0  0  0
    1.8013   -1.7843    0.5100 C   0  0  0  0  0  0  0  0  0  0  0  0
    3.0211   -1.5263    1.1429 C   0  0  0  0  0  0  0  0  0  0  0  0
    3.6734   -0.3081    0.9373 C   0  0  0  0  0  0  0  0  0  0  0  0
    3.1107    0.6518    0.0924 C   0  0  0  0  0  0  0  0  0  0  0  0
    1.8910    0.3985   -0.5425 C   0  0  0  0  0  0  0  0  0  0  0  0
   -3.2718    1.4248    1.4093 H   0  0  0  0  0  0  0  0  0  0  0  0
   -3.6523    2.9242   -0.4833 H   0  0  0  0  0  0  0  0  0  0  0  0
   -0.8067    0.7569   -2.8354 H   0  0  0  0  0  0  0  0  0  0  0  0
    0.1390   -1.2425   -2.1095 H   0  0  0  0  0  0  0  0  0  0  0  0
   -0.5123   -2.0797   -0.7071 H   0  0  0  0  0  0  0  0  0  0  0  0
    1.3119   -2.7358    0.6768 H   0  0  0  0  0  0  0  0  0  0  0  0
    3.4620   -2.2725    1.7912 H   0  0  0  0  0  0  0  0  0  0  0  0
    4.6180   -0.1106    1.4272 H   0  0  0  0  0  0  0  0  0  0  0  0
    3.6219    1.5911   -0.0743 H   0  0  0  0  0  0  0  0  0  0  0  0
    1.4758    1.1481   -1.2038 H   0  0  0  0  0  0  0  0  0  0  0  0
  1  2  1  0
  2  3  2  0
  2  4  2  0
  2  5  1  0
  5  6  1  0
  6  7  2  0
  7  8  1  0
  8  9  1  0
  8 10  2  0
 10 11  1  0
 11 12  1  0
 12 13  1  0
 13 14  2  0
 14 15  1  0
 15 16  2  0
 16 17  1  0
 17 18  2  0
 11  5  2  0
 18 13  1  0
  6 19  1  0
  7 20  1  0
 10 21  1  0
 12 22  1  0
 12 23  1  0
 14 24  1  0
 15 25  1  0
 16 26  1  0
 17 27  1  0
 18 28  1  0
M  RAD  1   1   3
M  END
$$$$
