
     RDKit          3D

 28 29  0  0  0  0  0  0  0  0999 V2000
   -2.6891   -2.4503   -1.9642 N   0  0  0  0  0  1  0  0  0  0  0  0
   -1.4228   -1.9042   -0.9218 S   0  0  0  0  0  0  0  0  0  0  0  0
   -0.1562   -1.8063   -1.7229 O   0  0  0  0  0  0  0  0  0  0  0  0
   -1.2561   -2.9196    0.1724 O   0  0  0  0  0  0  0  0  0  0  0  0
   -1.8253   -0.3140   -0.2446 C   0  0  0  0  0  0  0  0  0  0  0  0
   -2.9055    0.3891   -0.8055 C   0  0  0  0  0  0  0  0  0  0  0  0
   -3.2607    1.6522   -0.3327 C   0  0  0  0  0  0  0  0  0  0  0  0
   -2.5391    2.2388    0.7045 C   0  0  0  0  0  0  0  0  0  0  0  0
   -2.9836    3.8313    1.2910 Cl  0  0  0  0  0  0  0  0  0  0  0  0
   -1.4587    1.5616    1.2719 C   0  0  0  0  0  0  0  0  0  0  0  0
   -1.0853    0.2831    0.8140 C   0  0  0  0  0  0  0  0  0  0  0  0
    0.1132   -0.3814    1.4622 C   0  0  0  0  0  0  0  0  0  0  0  0
    1.3386   -0.3333    0.5836 C   0  0  0  0  0  0  0  0  0  0  0  0
    1.7985    0.8893    0.0611 C   0  0  0  0  0  0  0  0  0  0  0  0
    2.9519    0.9304   -0.7280 C   0  0  0  0  0  0  0  0  0  0  0  0
    3.6649   -0.2424   -0.9886 C   0  0  0  0  0  0  0  0  0  0  0  0
    3.2298   -1.4577   -0.4542 C   0  0  0  0  0  0  0  0  0  0  0  0
    2.0770   -1.5039    0.3358 C   0  0  0  0  0  0  0  0  0  0  0  0
   -3.4779   -0.0336   -1.6198 H   0  0  0  0  0  0  0  0  0  0  0  0
   -4.0963    2.1766   -0.7787 H   0  0  0  0  0  0  0  0  0  0  0  0
   -0.9039    2.0395    2.0703 H   0  0  0  0  0  0  0  0  0  0  0  0
    0.3655    0.1202    2.4218 H   0  0  0  0  0  0  0  0  0  0  0  0
   -0.1427   -1.4213    1.7456 H   0  0  0  0  0  0  0  0  0  0  0  0
    1.2656    1.8095    0.2634 H   0  0  0  0  0  0  0  0  0  0  0  0
    3.2956    1.8730   -1.1341 H   0  0  0  0  0  0  0  0  0  0  0  0
    4.5580   -0.2085   -1.5989 H   0  0  0  0  0  0  0  0  0  0  0  0
    3.7875   -2.3645   -0.6498 H   0  0  0  0  0  0  0  0  0  0  0  0
    1.7569   -2.4536    0.7460 H   0  0  0  0  0  0  0  0  0  0  0  0
  1  2  1  0
  2  3  2  0
  2  4  2  0
  2  5  1  0
  5  6  1  0
  6  7  2  0
  7  8  1  0
  8  9  1  0
  8 10  2  0
 10 11  1  0
 11 12  1  0
 12 13  1  0
 13 14  2  0
 14 15  1  0
 15 16  2  0
 16 17  1  0
 17 18  2  0
 11  5  2  0
 18 13  1  0
  6 19  1  0
  7 20  1  0
 10 21  1  0
 12 22  1  0
 12 23  1  0
 14 24  1  0
 15 25  1  0
 16 26  1  0
 17 27  1  0
 18 28  1  0
M  RAD  1   1   3
M  END
$$$$
