
     RDKit          3D

 28 29  0  0  0  0  0  0  0  0999 V2000
   -2.6837    2.6502    1.6934 N   0  0  0  0  0  1  0  0  0  0  0  0
   -1.3889    2.0026    0.7486 S   0  0  0  0  0  0  0  0  0  0  0  0
   -0.1703    1.8977    1.6202 O   0  0  0  0  0  0  0  0  0  0  0  0
   -1.1245    2.9529   -0.3842 O   0  0  0  0  0  0  0  0  0  0  0  0
   -1.8210    0.3962    0.1308 C   0  0  0  0  0  0  0  0  0  0  0  0
   -2.9566   -0.2350    0.6672 C   0  0  0  0  0  0  0  0  0  0  0  0
   -3.3386   -1.5062    0.2394 C   0  0  0  0  0  0  0  0  0  0  0  0
   -2.5893   -2.1731   -0.7273 C   0  0  0  0  0  0  0  0  0  0  0  0
   -3.0681   -3.7756   -1.2568 Cl  0  0  0  0  0  0  0  0  0  0  0  0
   -1.4542   -1.5682   -1.2689 C   0  0  0  0  0  0  0  0  0  0  0  0
   -1.0527   -0.2830   -0.8558 C   0  0  0  0  0  0  0  0  0  0  0  0
    0.2039    0.3006   -1.4712 C   0  0  0  0  0  0  0  0  0  0  0  0
    1.3795    0.2510   -0.5270 C   0  0  0  0  0  0  0  0  0  0  0  0
    2.1516    1.4036   -0.2985 C   0  0  0  0  0  0  0  0  0  0  0  0
    3.2593    1.3541    0.5533 C   0  0  0  0  0  0  0  0  0  0  0  0
    3.6160    0.1523    1.1699 C   0  0  0  0  0  0  0  0  0  0  0  0
    2.8698   -1.0042    0.9303 C   0  0  0  0  0  0  0  0  0  0  0  0
    1.7612   -0.9597    0.0795 C   0  0  0  0  0  0  0  0  0  0  0  0
   -3.5524    0.2510    1.4277 H   0  0  0  0  0  0  0  0  0  0  0  0
   -4.2169   -1.9744    0.6656 H   0  0  0  0  0  0  0  0  0  0  0  0
   -0.8792   -2.1077   -2.0118 H   0  0  0  0  0  0  0  0  0  0  0  0
    0.0059    1.3335   -1.8192 H   0  0  0  0  0  0  0  0  0  0  0  0
    0.4844   -0.2594   -2.3898 H   0  0  0  0  0  0  0  0  0  0  0  0
    1.8923    2.3423   -0.7720 H   0  0  0  0  0  0  0  0  0  0  0  0
    3.8430    2.2477    0.7332 H   0  0  0  0  0  0  0  0  0  0  0  0
    4.4744    0.1158    1.8281 H   0  0  0  0  0  0  0  0  0  0  0  0
    3.1531   -1.9370    1.4004 H   0  0  0  0  0  0  0  0  0  0  0  0
    1.2020   -1.8680   -0.1051 H   0  0  0  0  0  0  0  0  0  0  0  0
  1  2  1  0
  2  3  2  0
  2  4  2  0
  2  5  1  0
  5  6  1  0
  6  7  2  0
  7  8  1  0
  8  9  1  0
  8 10  2  0
 10 11  1  0
 11 12  1  0
 12 13  1  0
 13 14  2  0
 14 15  1  0
 15 16  2  0
 16 17  1  0
 17 18  2  0
 11  5  2  0
 18 13  1  0
  6 19  1  0
  7 20  1  0
 10 21  1  0
 12 22  1  0
 12 23  1  0
 14 24  1  0
 15 25  1  0
 16 26  1  0
 17 27  1  0
 18 28  1  0
M  RAD  1   1   3
M  END
$$$$
