
     RDKit          3D

 28 29  0  0  0  0  0  0  0  0999 V2000
   -2.9777   -1.7095   -2.3311 N   0  0  0  0  0  1  0  0  0  0  0  0
   -1.6630   -1.5169   -1.2254 S   0  0  0  0  0  0  0  0  0  0  0  0
   -1.6578   -2.7032   -0.3040 O   0  0  0  0  0  0  0  0  0  0  0  0
   -0.3832   -1.4762   -2.0104 O   0  0  0  0  0  0  0  0  0  0  0  0
   -1.8474   -0.0104   -0.3058 C   0  0  0  0  0  0  0  0  0  0  0  0
   -2.8090    0.9172   -0.7425 C   0  0  0  0  0  0  0  0  0  0  0  0
   -2.9896    2.1289   -0.0761 C   0  0  0  0  0  0  0  0  0  0  0  0
   -2.2083    2.4391    1.0347 C   0  0  0  0  0  0  0  0  0  0  0  0
   -2.4326    3.9679    1.8654 Cl  0  0  0  0  0  0  0  0  0  0  0  0
   -1.2430    1.5359    1.4819 C   0  0  0  0  0  0  0  0  0  0  0  0
   -1.0467    0.3042    0.8277 C   0  0  0  0  0  0  0  0  0  0  0  0
    0.0361   -0.6160    1.3559 C   0  0  0  0  0  0  0  0  0  0  0  0
    1.2692   -0.6061    0.4869 C   0  0  0  0  0  0  0  0  0  0  0  0
    1.9048    0.6051    0.1580 C   0  0  0  0  0  0  0  0  0  0  0  0
    3.0643    0.6045   -0.6232 C   0  0  0  0  0  0  0  0  0  0  0  0
    3.6086   -0.6028   -1.0684 C   0  0  0  0  0  0  0  0  0  0  0  0
    2.9984   -1.8122   -0.7268 C   0  0  0  0  0  0  0  0  0  0  0  0
    1.8388   -1.8167    0.0544 C   0  0  0  0  0  0  0  0  0  0  0  0
   -3.4229    0.7114   -1.6087 H   0  0  0  0  0  0  0  0  0  0  0  0
   -3.7360    2.8293   -0.4290 H   0  0  0  0  0  0  0  0  0  0  0  0
   -0.6385    1.8005    2.3411 H   0  0  0  0  0  0  0  0  0  0  0  0
   -0.3682   -1.6404    1.4756 H   0  0  0  0  0  0  0  0  0  0  0  0
    0.3421   -0.3103    2.3801 H   0  0  0  0  0  0  0  0  0  0  0  0
    1.5040    1.5489    0.5051 H   0  0  0  0  0  0  0  0  0  0  0  0
    3.5436    1.5403   -0.8798 H   0  0  0  0  0  0  0  0  0  0  0  0
    4.5067   -0.6014   -1.6723 H   0  0  0  0  0  0  0  0  0  0  0  0
    3.4255   -2.7473   -1.0654 H   0  0  0  0  0  0  0  0  0  0  0  0
    1.3818   -2.7635    0.3139 H   0  0  0  0  0  0  0  0  0  0  0  0
  1  2  1  0
  2  3  2  0
  2  4  2  0
  2  5  1  0
  5  6  1  0
  6  7  2  0
  7  8  1  0
  8  9  1  0
  8 10  2  0
 10 11  1  0
 11 12  1  0
 12 13  1  0
 13 14  2  0
 14 15  1  0
 15 16  2  0
 16 17  1  0
 17 18  2  0
 11  5  2  0
 18 13  1  0
  6 19  1  0
  7 20  1  0
 10 21  1  0
 12 22  1  0
 12 23  1  0
 14 24  1  0
 15 25  1  0
 16 26  1  0
 17 27  1  0
 18 28  1  0
M  RAD  1   1   3
M  END
$$$$
