
     RDKit          3D

 28 29  0  0  0  0  0  0  0  0999 V2000
   -2.3185    3.3176   -0.8435 N   0  0  0  0  0  1  0  0  0  0  0  0
   -1.1923    2.2521   -0.0788 S   0  0  0  0  0  0  0  0  0  0  0  0
    0.1292    2.3720   -0.7824 O   0  0  0  0  0  0  0  0  0  0  0  0
   -1.0480    2.6839    1.3527 O   0  0  0  0  0  0  0  0  0  0  0  0
   -1.7686    0.5764   -0.1725 C   0  0  0  0  0  0  0  0  0  0  0  0
   -2.8442    0.2944   -1.0324 C   0  0  0  0  0  0  0  0  0  0  0  0
   -3.3316   -1.0053   -1.1672 C   0  0  0  0  0  0  0  0  0  0  0  0
   -2.7491   -2.0483   -0.4505 C   0  0  0  0  0  0  0  0  0  0  0  0
   -3.3593   -3.6833   -0.6290 Cl  0  0  0  0  0  0  0  0  0  0  0  0
   -1.6758   -1.7924    0.4041 C   0  0  0  0  0  0  0  0  0  0  0  0
   -1.1705   -0.4870    0.5599 C   0  0  0  0  0  0  0  0  0  0  0  0
    0.0121   -0.2891    1.4875 C   0  0  0  0  0  0  0  0  0  0  0  0
    1.3031   -0.0873    0.7335 C   0  0  0  0  0  0  0  0  0  0  0  0
    2.1445    0.9939    1.0495 C   0  0  0  0  0  0  0  0  0  0  0  0
    3.3557    1.1675    0.3728 C   0  0  0  0  0  0  0  0  0  0  0  0
    3.7454    0.2558   -0.6114 C   0  0  0  0  0  0  0  0  0  0  0  0
    2.9279   -0.8355   -0.9158 C   0  0  0  0  0  0  0  0  0  0  0  0
    1.7158   -1.0131   -0.2420 C   0  0  0  0  0  0  0  0  0  0  0  0
   -3.3102    1.0798   -1.6116 H   0  0  0  0  0  0  0  0  0  0  0  0
   -4.1611   -1.2008   -1.8349 H   0  0  0  0  0  0  0  0  0  0  0  0
   -1.2300   -2.6188    0.9444 H   0  0  0  0  0  0  0  0  0  0  0  0
   -0.1905    0.5527    2.1785 H   0  0  0  0  0  0  0  0  0  0  0  0
    0.1415   -1.1737    2.1483 H   0  0  0  0  0  0  0  0  0  0  0  0
    1.8604    1.7075    1.8129 H   0  0  0  0  0  0  0  0  0  0  0  0
    3.9936    2.0080    0.6136 H   0  0  0  0  0  0  0  0  0  0  0  0
    4.6838    0.3912   -1.1334 H   0  0  0  0  0  0  0  0  0  0  0  0
    3.2356   -1.5469   -1.6712 H   0  0  0  0  0  0  0  0  0  0  0  0
    1.1009   -1.8713   -0.4814 H   0  0  0  0  0  0  0  0  0  0  0  0
  1  2  1  0
  2  3  2  0
  2  4  2  0
  2  5  1  0
  5  6  1  0
  6  7  2  0
  7  8  1  0
  8  9  1  0
  8 10  2  0
 10 11  1  0
 11 12  1  0
 12 13  1  0
 13 14  2  0
 14 15  1  0
 15 16  2  0
 16 17  1  0
 17 18  2  0
 11  5  2  0
 18 13  1  0
  6 19  1  0
  7 20  1  0
 10 21  1  0
 12 22  1  0
 12 23  1  0
 14 24  1  0
 15 25  1  0
 16 26  1  0
 17 27  1  0
 18 28  1  0
M  RAD  1   1   3
M  END
$$$$
