
     RDKit          3D

 28 29  0  0  0  0  0  0  0  0999 V2000
    1.4126   -2.6970    1.5227 N   0  0  0  0  0  1  0  0  0  0  0  0
    2.6080   -1.9670    0.5121 S   0  0  0  0  0  0  0  0  0  0  0  0
    2.6922   -2.7070   -0.7933 O   0  0  0  0  0  0  0  0  0  0  0  0
    3.9398   -2.0651    1.2022 O   0  0  0  0  0  0  0  0  0  0  0  0
    2.1936   -0.2697    0.2094 C   0  0  0  0  0  0  0  0  0  0  0  0
    3.0781    0.7218    0.6685 C   0  0  0  0  0  0  0  0  0  0  0  0
    2.8311    2.0718    0.4199 C   0  0  0  0  0  0  0  0  0  0  0  0
    1.7010    2.4547   -0.2994 C   0  0  0  0  0  0  0  0  0  0  0  0
    1.4008    4.1524   -0.6238 Cl  0  0  0  0  0  0  0  0  0  0  0  0
    0.8079    1.4868   -0.7612 C   0  0  0  0  0  0  0  0  0  0  0  0
    1.0236    0.1194   -0.5004 C   0  0  0  0  0  0  0  0  0  0  0  0
    0.0001   -0.8705   -1.0217 C   0  0  0  0  0  0  0  0  0  0  0  0
   -1.3710   -0.5834   -0.4617 C   0  0  0  0  0  0  0  0  0  0  0  0
   -2.3870   -0.0718   -1.2877 C   0  0  0  0  0  0  0  0  0  0  0  0
   -3.6516    0.2062   -0.7597 C   0  0  0  0  0  0  0  0  0  0  0  0
   -3.9111   -0.0215    0.5944 C   0  0  0  0  0  0  0  0  0  0  0  0
   -2.9058   -0.5260    1.4234 C   0  0  0  0  0  0  0  0  0  0  0  0
   -1.6399   -0.8054    0.8996 C   0  0  0  0  0  0  0  0  0  0  0  0
    3.9713    0.4545    1.2174 H   0  0  0  0  0  0  0  0  0  0  0  0
    3.5259    2.8198    0.7804 H   0  0  0  0  0  0  0  0  0  0  0  0
   -0.0636    1.8023   -1.3220 H   0  0  0  0  0  0  0  0  0  0  0  0
    0.2504   -1.9193   -0.7788 H   0  0  0  0  0  0  0  0  0  0  0  0
   -0.0105   -0.8103   -2.1318 H   0  0  0  0  0  0  0  0  0  0  0  0
   -2.2003    0.1154   -2.3379 H   0  0  0  0  0  0  0  0  0  0  0  0
   -4.4301    0.6000   -1.4002 H   0  0  0  0  0  0  0  0  0  0  0  0
   -4.8903    0.1951    1.0016 H   0  0  0  0  0  0  0  0  0  0  0  0
   -3.1067   -0.6986    2.4729 H   0  0  0  0  0  0  0  0  0  0  0  0
   -0.8688   -1.1876    1.5551 H   0  0  0  0  0  0  0  0  0  0  0  0
  1  2  1  0
  2  3  2  0
  2  4  2  0
  2  5  1  0
  5  6  1  0
  6  7  2  0
  7  8  1  0
  8  9  1  0
  8 10  2  0
 10 11  1  0
 11 12  1  0
 12 13  1  0
 13 14  2  0
 14 15  1  0
 15 16  2  0
 16 17  1  0
 17 18  2  0
 11  5  2  0
 18 13  1  0
  6 19  1  0
  7 20  1  0
 10 21  1  0
 12 22  1  0
 12 23  1  0
 14 24  1  0
 15 25  1  0
 16 26  1  0
 17 27  1  0
 18 28  1  0
M  RAD  1   1   3
M  END
$$$$
