
     RDKit          3D

 28 29  0  0  0  0  0  0  0  0999 V2000
    1.1648   -2.9167   -1.3132 N   0  0  0  0  0  1  0  0  0  0  0  0
    2.3674   -2.2959   -0.2399 S   0  0  0  0  0  0  0  0  0  0  0  0
    3.7221   -2.5890   -0.8215 O   0  0  0  0  0  0  0  0  0  0  0  0
    2.2627   -2.9815    1.0934 O   0  0  0  0  0  0  0  0  0  0  0  0
    2.1510   -0.5485   -0.0301 C   0  0  0  0  0  0  0  0  0  0  0  0
    3.1849    0.3042   -0.4545 C   0  0  0  0  0  0  0  0  0  0  0  0
    3.0940    1.6842   -0.2735 C   0  0  0  0  0  0  0  0  0  0  0  0
    1.9727    2.2360    0.3427 C   0  0  0  0  0  0  0  0  0  0  0  0
    1.8679    3.9706    0.5828 Cl  0  0  0  0  0  0  0  0  0  0  0  0
    0.9332    1.4078    0.7682 C   0  0  0  0  0  0  0  0  0  0  0  0
    0.9918    0.0139    0.5732 C   0  0  0  0  0  0  0  0  0  0  0  0
   -0.1839   -0.8173    1.0488 C   0  0  0  0  0  0  0  0  0  0  0  0
   -1.4636   -0.3878    0.3750 C   0  0  0  0  0  0  0  0  0  0  0  0
   -1.6598   -0.6354   -0.9943 C   0  0  0  0  0  0  0  0  0  0  0  0
   -2.8390   -0.2251   -1.6235 C   0  0  0  0  0  0  0  0  0  0  0  0
   -3.8292    0.4367   -0.8928 C   0  0  0  0  0  0  0  0  0  0  0  0
   -3.6410    0.6908    0.4684 C   0  0  0  0  0  0  0  0  0  0  0  0
   -2.4632    0.2822    1.1018 C   0  0  0  0  0  0  0  0  0  0  0  0
    4.0741   -0.0960   -0.9232 H   0  0  0  0  0  0  0  0  0  0  0  0
    3.9022    2.3234   -0.6056 H   0  0  0  0  0  0  0  0  0  0  0  0
    0.0707    1.8536    1.2487 H   0  0  0  0  0  0  0  0  0  0  0  0
   -0.2667   -0.7066    2.1519 H   0  0  0  0  0  0  0  0  0  0  0  0
   -0.0519   -1.8988    0.8631 H   0  0  0  0  0  0  0  0  0  0  0  0
   -0.8982   -1.1392   -1.5744 H   0  0  0  0  0  0  0  0  0  0  0  0
   -2.9841   -0.4181   -2.6786 H   0  0  0  0  0  0  0  0  0  0  0  0
   -4.7411    0.7545   -1.3815 H   0  0  0  0  0  0  0  0  0  0  0  0
   -4.4074    1.2062    1.0327 H   0  0  0  0  0  0  0  0  0  0  0  0
   -2.3304    0.4916    2.1559 H   0  0  0  0  0  0  0  0  0  0  0  0
  1  2  1  0
  2  3  2  0
  2  4  2  0
  2  5  1  0
  5  6  1  0
  6  7  2  0
  7  8  1  0
  8  9  1  0
  8 10  2  0
 10 11  1  0
 11 12  1  0
 12 13  1  0
 13 14  2  0
 14 15  1  0
 15 16  2  0
 16 17  1  0
 17 18  2  0
 11  5  2  0
 18 13  1  0
  6 19  1  0
  7 20  1  0
 10 21  1  0
 12 22  1  0
 12 23  1  0
 14 24  1  0
 15 25  1  0
 16 26  1  0
 17 27  1  0
 18 28  1  0
M  RAD  1   1   3
M  END
$$$$
