
     RDKit          3D

 28 29  0  0  0  0  0  0  0  0999 V2000
   -2.9966   -2.8463    0.0942 N   0  0  0  0  0  1  0  0  0  0  0  0
   -1.5683   -1.9492    0.4732 S   0  0  0  0  0  0  0  0  0  0  0  0
   -1.2219   -2.2190    1.9097 O   0  0  0  0  0  0  0  0  0  0  0  0
   -0.4567   -2.4264   -0.4169 O   0  0  0  0  0  0  0  0  0  0  0  0
   -1.8417   -0.2158    0.2098 C   0  0  0  0  0  0  0  0  0  0  0  0
   -2.9985    0.1725   -0.4880 C   0  0  0  0  0  0  0  0  0  0  0  0
   -3.2618    1.5176   -0.7458 C   0  0  0  0  0  0  0  0  0  0  0  0
   -2.3709    2.4990   -0.3171 C   0  0  0  0  0  0  0  0  0  0  0  0
   -2.7011    4.1894   -0.6506 Cl  0  0  0  0  0  0  0  0  0  0  0  0
   -1.2126    2.1359    0.3716 C   0  0  0  0  0  0  0  0  0  0  0  0
   -0.9290    0.7843    0.6477 C   0  0  0  0  0  0  0  0  0  0  0  0
    0.3595    0.4640    1.3795 C   0  0  0  0  0  0  0  0  0  0  0  0
    1.4171   -0.0926    0.4589 C   0  0  0  0  0  0  0  0  0  0  0  0
    2.0968   -1.2761    0.7971 C   0  0  0  0  0  0  0  0  0  0  0  0
    3.0979   -1.7792   -0.0393 C   0  0  0  0  0  0  0  0  0  0  0  0
    3.4410   -1.0980   -1.2098 C   0  0  0  0  0  0  0  0  0  0  0  0
    2.7885    0.0918   -1.5424 C   0  0  0  0  0  0  0  0  0  0  0  0
    1.7867    0.5987   -0.7093 C   0  0  0  0  0  0  0  0  0  0  0  0
   -3.7036   -0.5659   -0.8446 H   0  0  0  0  0  0  0  0  0  0  0  0
   -4.1588    1.7950   -1.2849 H   0  0  0  0  0  0  0  0  0  0  0  0
   -0.5274    2.9134    0.6872 H   0  0  0  0  0  0  0  0  0  0  0  0
    0.7743    1.3784    1.8568 H   0  0  0  0  0  0  0  0  0  0  0  0
    0.1509   -0.2247    2.2218 H   0  0  0  0  0  0  0  0  0  0  0  0
    1.8470   -1.8144    1.7029 H   0  0  0  0  0  0  0  0  0  0  0  0
    3.6096   -2.6965    0.2216 H   0  0  0  0  0  0  0  0  0  0  0  0
    4.2169   -1.4884   -1.8555 H   0  0  0  0  0  0  0  0  0  0  0  0
    3.0622    0.6241   -2.4442 H   0  0  0  0  0  0  0  0  0  0  0  0
    1.3005    1.5284   -0.9757 H   0  0  0  0  0  0  0  0  0  0  0  0
  1  2  1  0
  2  3  2  0
  2  4  2  0
  2  5  1  0
  5  6  1  0
  6  7  2  0
  7  8  1  0
  8  9  1  0
  8 10  2  0
 10 11  1  0
 11 12  1  0
 12 13  1  0
 13 14  2  0
 14 15  1  0
 15 16  2  0
 16 17  1  0
 17 18  2  0
 11  5  2  0
 18 13  1  0
  6 19  1  0
  7 20  1  0
 10 21  1  0
 12 22  1  0
 12 23  1  0
 14 24  1  0
 15 25  1  0
 16 26  1  0
 17 27  1  0
 18 28  1  0
M  RAD  1   1   3
M  END
$$$$
