
     RDKit          3D

 36 37  0  0  0  0  0  0  0  0999 V2000
    5.2353   -0.6925   -0.9890 C   0  0  0  0  0  0  0  0  0  0  0  0
    4.5230   -0.0150    0.1017 N   0  0  0  0  0  0  0  0  0  0  0  0
    5.2897    0.4672    1.2573 C   0  0  0  0  0  0  0  0  0  0  0  0
    3.0848    0.1756    0.0384 C   0  0  0  0  0  0  0  0  0  0  0  0
    2.3343    0.4189    1.2080 C   0  0  0  0  0  0  0  0  0  0  0  0
    0.9503    0.6020    1.1455 C   0  0  0  0  0  0  0  0  0  0  0  0
    0.2834    0.5572   -0.0858 C   0  0  0  0  0  0  0  0  0  0  0  0
   -1.2118    0.7192   -0.1465 C   0  0  0  0  0  0  0  0  0  0  0  0
   -1.9069   -0.6368    0.0087 C   0  0  0  0  0  0  0  0  0  0  0  0
   -3.4061   -0.4751   -0.0478 C   0  0  0  0  0  0  0  0  0  0  0  0
   -4.0676   -0.5829   -1.2837 C   0  0  0  0  0  0  0  0  0  0  0  0
   -5.4517   -0.4068   -1.3634 C   0  0  0  0  0  0  0  0  0  0  0  0
   -6.1873   -0.1117   -0.2140 C   0  0  0  0  0  0  0  0  0  0  0  0
   -5.5403    0.0130    1.0177 C   0  0  0  0  0  0  0  0  0  0  0  0
   -4.1539   -0.1614    1.1075 C   0  0  0  0  0  0  0  0  0  0  0  0
   -3.5153   -0.0131    2.3740 N   0  0  0  0  0  1  0  0  0  0  0  0
    1.0157    0.3022   -1.2526 C   0  0  0  0  0  0  0  0  0  0  0  0
    2.3998    0.1182   -1.1937 C   0  0  0  0  0  0  0  0  0  0  0  0
    4.7197   -1.6427   -1.2439 H   0  0  0  0  0  0  0  0  0  0  0  0
    5.2717   -0.0342   -1.8820 H   0  0  0  0  0  0  0  0  0  0  0  0
    6.2778   -0.9458   -0.7021 H   0  0  0  0  0  0  0  0  0  0  0  0
    5.0787   -0.1691    2.1421 H   0  0  0  0  0  0  0  0  0  0  0  0
    6.3829    0.4402    1.0636 H   0  0  0  0  0  0  0  0  0  0  0  0
    5.0165    1.5207    1.4790 H   0  0  0  0  0  0  0  0  0  0  0  0
    2.8081    0.4555    2.1789 H   0  0  0  0  0  0  0  0  0  0  0  0
    0.3968    0.7754    2.0603 H   0  0  0  0  0  0  0  0  0  0  0  0
   -1.5018    1.1795   -1.1170 H   0  0  0  0  0  0  0  0  0  0  0  0
   -1.5475    1.4091    0.6589 H   0  0  0  0  0  0  0  0  0  0  0  0
   -1.6094   -1.1072    0.9713 H   0  0  0  0  0  0  0  0  0  0  0  0
   -1.5703   -1.3214   -0.8013 H   0  0  0  0  0  0  0  0  0  0  0  0
   -3.5106   -0.8020   -2.1864 H   0  0  0  0  0  0  0  0  0  0  0  0
   -5.9538   -0.4959   -2.3181 H   0  0  0  0  0  0  0  0  0  0  0  0
   -7.2590    0.0255   -0.2784 H   0  0  0  0  0  0  0  0  0  0  0  0
   -6.1172    0.2497    1.9030 H   0  0  0  0  0  0  0  0  0  0  0  0
    0.5141    0.2459   -2.2110 H   0  0  0  0  0  0  0  0  0  0  0  0
    2.9280   -0.0614   -2.1196 H   0  0  0  0  0  0  0  0  0  0  0  0
  1  2  1  0
  2  3  1  0
  2  4  1  0
  4  5  1  0
  5  6  2  0
  6  7  1  0
  7  8  1  0
  8  9  1  0
  9 10  1  0
 10 11  2  0
 11 12  1  0
 12 13  2  0
 13 14  1  0
 14 15  2  0
 15 16  1  0
  7 17  2  0
 17 18  1  0
 18  4  2  0
 15 10  1  0
  1 19  1  0
  1 20  1  0
  1 21  1  0
  3 22  1  0
  3 23  1  0
  3 24  1  0
  5 25  1  0
  6 26  1  0
  8 27  1  0
  8 28  1  0
  9 29  1  0
  9 30  1  0
 11 31  1  0
 12 32  1  0
 13 33  1  0
 14 34  1  0
 17 35  1  0
 18 36  1  0
M  RAD  1  16   3
M  END
$$$$
