
     RDKit          3D

 36 37  0  0  0  0  0  0  0  0999 V2000
    4.3986    0.3954   -1.6252 C   0  0  0  0  0  0  0  0  0  0  0  0
    3.3986    0.7876   -0.6244 N   0  0  0  0  0  0  0  0  0  0  0  0
    3.6041    2.0267    0.1360 C   0  0  0  0  0  0  0  0  0  0  0  0
    2.2252   -0.0350   -0.3918 C   0  0  0  0  0  0  0  0  0  0  0  0
    1.4992    0.0637    0.8136 C   0  0  0  0  0  0  0  0  0  0  0  0
    0.3679   -0.7259    1.0342 C   0  0  0  0  0  0  0  0  0  0  0  0
   -0.0644   -1.6354    0.0594 C   0  0  0  0  0  0  0  0  0  0  0  0
   -1.3184   -2.4445    0.2737 C   0  0  0  0  0  0  0  0  0  0  0  0
   -2.5335   -1.8039   -0.4127 C   0  0  0  0  0  0  0  0  0  0  0  0
   -2.8608   -0.4484    0.1711 C   0  0  0  0  0  0  0  0  0  0  0  0
   -2.3815    0.7127   -0.4615 C   0  0  0  0  0  0  0  0  0  0  0  0
   -2.6326    1.9728    0.0872 C   0  0  0  0  0  0  0  0  0  0  0  0
   -3.3608    2.0875    1.2727 C   0  0  0  0  0  0  0  0  0  0  0  0
   -3.8372    0.9420    1.9147 C   0  0  0  0  0  0  0  0  0  0  0  0
   -3.5887   -0.3252    1.3738 C   0  0  0  0  0  0  0  0  0  0  0  0
   -4.0753   -1.4796    2.0549 N   0  0  0  0  0  1  0  0  0  0  0  0
    0.6444   -1.7370   -1.1445 C   0  0  0  0  0  0  0  0  0  0  0  0
    1.7778   -0.9505   -1.3673 C   0  0  0  0  0  0  0  0  0  0  0  0
    4.6768   -0.6706   -1.4837 H   0  0  0  0  0  0  0  0  0  0  0  0
    5.3274    0.9972   -1.5332 H   0  0  0  0  0  0  0  0  0  0  0  0
    3.9889    0.5437   -2.6462 H   0  0  0  0  0  0  0  0  0  0  0  0
    3.8764    1.7851    1.1846 H   0  0  0  0  0  0  0  0  0  0  0  0
    2.6765    2.6376    0.1205 H   0  0  0  0  0  0  0  0  0  0  0  0
    4.4173    2.6444   -0.3002 H   0  0  0  0  0  0  0  0  0  0  0  0
    1.8026    0.7461    1.5951 H   0  0  0  0  0  0  0  0  0  0  0  0
   -0.1780   -0.6200    1.9637 H   0  0  0  0  0  0  0  0  0  0  0  0
   -1.1703   -3.4655   -0.1404 H   0  0  0  0  0  0  0  0  0  0  0  0
   -1.5203   -2.5678    1.3603 H   0  0  0  0  0  0  0  0  0  0  0  0
   -3.4091   -2.4790   -0.3018 H   0  0  0  0  0  0  0  0  0  0  0  0
   -2.3418   -1.7197   -1.5052 H   0  0  0  0  0  0  0  0  0  0  0  0
   -1.8033    0.6411   -1.3746 H   0  0  0  0  0  0  0  0  0  0  0  0
   -2.2584    2.8610   -0.4054 H   0  0  0  0  0  0  0  0  0  0  0  0
   -3.5532    3.0647    1.6966 H   0  0  0  0  0  0  0  0  0  0  0  0
   -4.3970    1.0396    2.8364 H   0  0  0  0  0  0  0  0  0  0  0  0
    0.3132   -2.4208   -1.9165 H   0  0  0  0  0  0  0  0  0  0  0  0
    2.2894   -1.0531   -2.3140 H   0  0  0  0  0  0  0  0  0  0  0  0
  1  2  1  0
  2  3  1  0
  2  4  1  0
  4  5  1  0
  5  6  2  0
  6  7  1  0
  7  8  1  0
  8  9  1  0
  9 10  1  0
 10 11  2  0
 11 12  1  0
 12 13  2  0
 13 14  1  0
 14 15  2  0
 15 16  1  0
  7 17  2  0
 17 18  1  0
 18  4  2  0
 15 10  1  0
  1 19  1  0
  1 20  1  0
  1 21  1  0
  3 22  1  0
  3 23  1  0
  3 24  1  0
  5 25  1  0
  6 26  1  0
  8 27  1  0
  8 28  1  0
  9 29  1  0
  9 30  1  0
 11 31  1  0
 12 32  1  0
 13 33  1  0
 14 34  1  0
 17 35  1  0
 18 36  1  0
M  RAD  1  16   3
M  END
$$$$
