
     RDKit          3D

 36 37  0  0  0  0  0  0  0  0999 V2000
   -5.3561   -1.1244   -0.0554 C   0  0  0  0  0  0  0  0  0  0  0  0
   -4.5210    0.0689    0.1308 N   0  0  0  0  0  0  0  0  0  0  0  0
   -5.1683    1.3856    0.1862 C   0  0  0  0  0  0  0  0  0  0  0  0
   -3.0795   -0.0514    0.2585 C   0  0  0  0  0  0  0  0  0  0  0  0
   -2.3156    0.9789    0.8463 C   0  0  0  0  0  0  0  0  0  0  0  0
   -0.9285    0.8611    0.9685 C   0  0  0  0  0  0  0  0  0  0  0  0
   -0.2715   -0.2907    0.5164 C   0  0  0  0  0  0  0  0  0  0  0  0
    1.2264   -0.4003    0.6160 C   0  0  0  0  0  0  0  0  0  0  0  0
    1.8928    0.1732   -0.6382 C   0  0  0  0  0  0  0  0  0  0  0  0
    3.3943    0.0599   -0.5412 C   0  0  0  0  0  0  0  0  0  0  0  0
    4.1344    1.1218    0.0074 C   0  0  0  0  0  0  0  0  0  0  0  0
    5.5228    1.0258    0.1343 C   0  0  0  0  0  0  0  0  0  0  0  0
    6.1848   -0.1334   -0.2750 C   0  0  0  0  0  0  0  0  0  0  0  0
    5.4596   -1.2018   -0.8078 C   0  0  0  0  0  0  0  0  0  0  0  0
    4.0683   -1.1150   -0.9387 C   0  0  0  0  0  0  0  0  0  0  0  0
    3.3495   -2.2257   -1.4710 N   0  0  0  0  0  1  0  0  0  0  0  0
   -1.0173   -1.3144   -0.0824 C   0  0  0  0  0  0  0  0  0  0  0  0
   -2.4047   -1.2001   -0.2058 C   0  0  0  0  0  0  0  0  0  0  0  0
   -6.4344   -0.8944    0.0776 H   0  0  0  0  0  0  0  0  0  0  0  0
   -5.2118   -1.5300   -1.0785 H   0  0  0  0  0  0  0  0  0  0  0  0
   -5.0850   -1.8961    0.6960 H   0  0  0  0  0  0  0  0  0  0  0  0
   -4.6490    2.0908   -0.4969 H   0  0  0  0  0  0  0  0  0  0  0  0
   -6.2306    1.3336   -0.1336 H   0  0  0  0  0  0  0  0  0  0  0  0
   -5.1377    1.7778    1.2242 H   0  0  0  0  0  0  0  0  0  0  0  0
   -2.7839    1.8779    1.2217 H   0  0  0  0  0  0  0  0  0  0  0  0
   -0.3656    1.6704    1.4175 H   0  0  0  0  0  0  0  0  0  0  0  0
    1.5854    0.1484    1.5148 H   0  0  0  0  0  0  0  0  0  0  0  0
    1.5170   -1.4666    0.7430 H   0  0  0  0  0  0  0  0  0  0  0  0
    1.5267   -0.3632   -1.5408 H   0  0  0  0  0  0  0  0  0  0  0  0
    1.6017    1.2404   -0.7581 H   0  0  0  0  0  0  0  0  0  0  0  0
    3.6354    2.0244    0.3385 H   0  0  0  0  0  0  0  0  0  0  0  0
    6.0856    1.8498    0.5537 H   0  0  0  0  0  0  0  0  0  0  0  0
    7.2600   -0.2061   -0.1746 H   0  0  0  0  0  0  0  0  0  0  0  0
    5.9798   -2.1002   -1.1157 H   0  0  0  0  0  0  0  0  0  0  0  0
   -0.5232   -2.2020   -0.4582 H   0  0  0  0  0  0  0  0  0  0  0  0
   -2.9409   -2.0105   -0.6794 H   0  0  0  0  0  0  0  0  0  0  0  0
  1  2  1  0
  2  3  1  0
  2  4  1  0
  4  5  1  0
  5  6  2  0
  6  7  1  0
  7  8  1  0
  8  9  1  0
  9 10  1  0
 10 11  2  0
 11 12  1  0
 12 13  2  0
 13 14  1  0
 14 15  2  0
 15 16  1  0
  7 17  2  0
 17 18  1  0
 18  4  2  0
 15 10  1  0
  1 19  1  0
  1 20  1  0
  1 21  1  0
  3 22  1  0
  3 23  1  0
  3 24  1  0
  5 25  1  0
  6 26  1  0
  8 27  1  0
  8 28  1  0
  9 29  1  0
  9 30  1  0
 11 31  1  0
 12 32  1  0
 13 33  1  0
 14 34  1  0
 17 35  1  0
 18 36  1  0
M  RAD  1  16   3
M  END
$$$$
