
     RDKit          3D

 36 37  0  0  0  0  0  0  0  0999 V2000
    4.4080   -0.9657    1.2697 C   0  0  0  0  0  0  0  0  0  0  0  0
    3.3015   -1.2322    0.3423 N   0  0  0  0  0  0  0  0  0  0  0  0
    3.2953   -2.4923   -0.4112 C   0  0  0  0  0  0  0  0  0  0  0  0
    2.2302   -0.2668    0.1745 C   0  0  0  0  0  0  0  0  0  0  0  0
    1.4188   -0.2789   -0.9792 C   0  0  0  0  0  0  0  0  0  0  0  0
    0.3858    0.6483   -1.1373 C   0  0  0  0  0  0  0  0  0  0  0  0
    0.1396    1.6122   -0.1501 C   0  0  0  0  0  0  0  0  0  0  0  0
   -1.0120    2.5747   -0.2941 C   0  0  0  0  0  0  0  0  0  0  0  0
   -2.2506    2.1004    0.4796 C   0  0  0  0  0  0  0  0  0  0  0  0
   -2.7870    0.7946   -0.0612 C   0  0  0  0  0  0  0  0  0  0  0  0
   -2.4193   -0.4144    0.5560 C   0  0  0  0  0  0  0  0  0  0  0  0
   -2.8658   -1.6352    0.0438 C   0  0  0  0  0  0  0  0  0  0  0  0
   -3.6801   -1.6628   -1.0899 C   0  0  0  0  0  0  0  0  0  0  0  0
   -4.0476   -0.4696   -1.7164 C   0  0  0  0  0  0  0  0  0  0  0  0
   -3.6032    0.7585   -1.2119 C   0  0  0  0  0  0  0  0  0  0  0  0
   -3.9823    1.9615   -1.8769 N   0  0  0  0  0  1  0  0  0  0  0  0
    0.9342    1.6294    1.0034 C   0  0  0  0  0  0  0  0  0  0  0  0
    1.9698    0.7049    1.1634 C   0  0  0  0  0  0  0  0  0  0  0  0
    4.0517   -1.0533    2.3174 H   0  0  0  0  0  0  0  0  0  0  0  0
    5.2438   -1.6827    1.1262 H   0  0  0  0  0  0  0  0  0  0  0  0
    4.8103    0.0547    1.0945 H   0  0  0  0  0  0  0  0  0  0  0  0
    2.3003   -2.9785   -0.3260 H   0  0  0  0  0  0  0  0  0  0  0  0
    3.5258   -2.2946   -1.4789 H   0  0  0  0  0  0  0  0  0  0  0  0
    4.0501   -3.2068   -0.0198 H   0  0  0  0  0  0  0  0  0  0  0  0
    1.5796   -0.9997   -1.7686 H   0  0  0  0  0  0  0  0  0  0  0  0
   -0.2299    0.6077   -2.0275 H   0  0  0  0  0  0  0  0  0  0  0  0
   -0.7070    3.5708    0.0941 H   0  0  0  0  0  0  0  0  0  0  0  0
   -1.2684    2.7160   -1.3669 H   0  0  0  0  0  0  0  0  0  0  0  0
   -1.9989    1.9992    1.5585 H   0  0  0  0  0  0  0  0  0  0  0  0
   -3.0379    2.8820    0.4161 H   0  0  0  0  0  0  0  0  0  0  0  0
   -1.7771   -0.4120    1.4282 H   0  0  0  0  0  0  0  0  0  0  0  0
   -2.5765   -2.5610    0.5241 H   0  0  0  0  0  0  0  0  0  0  0  0
   -4.0239   -2.6097   -1.4856 H   0  0  0  0  0  0  0  0  0  0  0  0
   -4.6755   -0.5002   -2.5981 H   0  0  0  0  0  0  0  0  0  0  0  0
    0.7456    2.3551    1.7850 H   0  0  0  0  0  0  0  0  0  0  0  0
    2.5523    0.7468    2.0730 H   0  0  0  0  0  0  0  0  0  0  0  0
  1  2  1  0
  2  3  1  0
  2  4  1  0
  4  5  1  0
  5  6  2  0
  6  7  1  0
  7  8  1  0
  8  9  1  0
  9 10  1  0
 10 11  2  0
 11 12  1  0
 12 13  2  0
 13 14  1  0
 14 15  2  0
 15 16  1  0
  7 17  2  0
 17 18  1  0
 18  4  2  0
 15 10  1  0
  1 19  1  0
  1 20  1  0
  1 21  1  0
  3 22  1  0
  3 23  1  0
  3 24  1  0
  5 25  1  0
  6 26  1  0
  8 27  1  0
  8 28  1  0
  9 29  1  0
  9 30  1  0
 11 31  1  0
 12 32  1  0
 13 33  1  0
 14 34  1  0
 17 35  1  0
 18 36  1  0
M  RAD  1  16   3
M  END
$$$$
