
     RDKit          3D

 36 37  0  0  0  0  0  0  0  0999 V2000
    5.2476   -1.1336    0.1789 C   0  0  0  0  0  0  0  0  0  0  0  0
    4.5212    0.1420    0.2154 N   0  0  0  0  0  0  0  0  0  0  0  0
    5.2734    1.3794    0.4581 C   0  0  0  0  0  0  0  0  0  0  0  0
    3.0836    0.1793    0.0143 C   0  0  0  0  0  0  0  0  0  0  0  0
    2.4133   -0.8856   -0.6239 C   0  0  0  0  0  0  0  0  0  0  0  0
    1.0297   -0.8477   -0.8167 C   0  0  0  0  0  0  0  0  0  0  0  0
    0.2832    0.2570   -0.3864 C   0  0  0  0  0  0  0  0  0  0  0  0
   -1.2115    0.2800   -0.5625 C   0  0  0  0  0  0  0  0  0  0  0  0
   -1.9060   -0.3496    0.6488 C   0  0  0  0  0  0  0  0  0  0  0  0
   -3.4047   -0.3232    0.4753 C   0  0  0  0  0  0  0  0  0  0  0  0
   -4.0514   -1.4189   -0.1230 C   0  0  0  0  0  0  0  0  0  0  0  0
   -5.4347   -1.4026   -0.3208 C   0  0  0  0  0  0  0  0  0  0  0  0
   -6.1844   -0.2903    0.0666 C   0  0  0  0  0  0  0  0  0  0  0  0
   -5.5521    0.8111    0.6484 C   0  0  0  0  0  0  0  0  0  0  0  0
   -4.1666    0.8043    0.8504 C   0  0  0  0  0  0  0  0  0  0  0  0
   -3.5433    1.9475    1.4319 N   0  0  0  0  0  1  0  0  0  0  0  0
    0.9354    1.3140    0.2618 C   0  0  0  0  0  0  0  0  0  0  0  0
    2.3189    1.2796    0.4559 C   0  0  0  0  0  0  0  0  0  0  0  0
    4.7367   -1.8778    0.8261 H   0  0  0  0  0  0  0  0  0  0  0  0
    5.2934   -1.5120   -0.8636 H   0  0  0  0  0  0  0  0  0  0  0  0
    6.2871   -1.0238    0.5540 H   0  0  0  0  0  0  0  0  0  0  0  0
    6.3688    1.2150    0.3788 H   0  0  0  0  0  0  0  0  0  0  0  0
    5.0531    1.7612    1.4768 H   0  0  0  0  0  0  0  0  0  0  0  0
    4.9958    2.1446   -0.2976 H   0  0  0  0  0  0  0  0  0  0  0  0
    2.9527   -1.7501   -0.9846 H   0  0  0  0  0  0  0  0  0  0  0  0
    0.5395   -1.6821   -1.3034 H   0  0  0  0  0  0  0  0  0  0  0  0
   -1.4908   -0.2760   -1.4848 H   0  0  0  0  0  0  0  0  0  0  0  0
   -1.5580    1.3290   -0.6923 H   0  0  0  0  0  0  0  0  0  0  0  0
   -1.6191    0.1943    1.5752 H   0  0  0  0  0  0  0  0  0  0  0  0
   -1.5587   -1.3995    0.7717 H   0  0  0  0  0  0  0  0  0  0  0  0
   -3.4834   -2.2857   -0.4379 H   0  0  0  0  0  0  0  0  0  0  0  0
   -5.9254   -2.2522   -0.7781 H   0  0  0  0  0  0  0  0  0  0  0  0
   -7.2555   -0.2794   -0.0887 H   0  0  0  0  0  0  0  0  0  0  0  0
   -6.1399    1.6729    0.9390 H   0  0  0  0  0  0  0  0  0  0  0  0
    0.3708    2.1656    0.6214 H   0  0  0  0  0  0  0  0  0  0  0  0
    2.7811    2.1132    0.9657 H   0  0  0  0  0  0  0  0  0  0  0  0
  1  2  1  0
  2  3  1  0
  2  4  1  0
  4  5  1  0
  5  6  2  0
  6  7  1  0
  7  8  1  0
  8  9  1  0
  9 10  1  0
 10 11  2  0
 11 12  1  0
 12 13  2  0
 13 14  1  0
 14 15  2  0
 15 16  1  0
  7 17  2  0
 17 18  1  0
 18  4  2  0
 15 10  1  0
  1 19  1  0
  1 20  1  0
  1 21  1  0
  3 22  1  0
  3 23  1  0
  3 24  1  0
  5 25  1  0
  6 26  1  0
  8 27  1  0
  8 28  1  0
  9 29  1  0
  9 30  1  0
 11 31  1  0
 12 32  1  0
 13 33  1  0
 14 34  1  0
 17 35  1  0
 18 36  1  0
M  RAD  1  16   3
M  END
$$$$
