
     RDKit          3D

 36 37  0  0  0  0  0  0  0  0999 V2000
   -5.3036    0.8304   -0.1032 C   0  0  0  0  0  0  0  0  0  0  0  0
   -4.5057   -0.3710    0.1721 N   0  0  0  0  0  0  0  0  0  0  0  0
   -5.1929   -1.6603    0.3183 C   0  0  0  0  0  0  0  0  0  0  0  0
   -3.0616   -0.2857    0.2984 C   0  0  0  0  0  0  0  0  0  0  0  0
   -2.4305    0.9435    0.5837 C   0  0  0  0  0  0  0  0  0  0  0  0
   -1.0406    1.0236    0.7050 C   0  0  0  0  0  0  0  0  0  0  0  0
   -0.2480   -0.1217    0.5543 C   0  0  0  0  0  0  0  0  0  0  0  0
    1.2512   -0.0270    0.6495 C   0  0  0  0  0  0  0  0  0  0  0  0
    1.8599    0.2743   -0.7233 C   0  0  0  0  0  0  0  0  0  0  0  0
    3.3632    0.3654   -0.6298 C   0  0  0  0  0  0  0  0  0  0  0  0
    3.9673    1.6120   -0.3900 C   0  0  0  0  0  0  0  0  0  0  0  0
    5.3559    1.7142   -0.2698 C   0  0  0  0  0  0  0  0  0  0  0  0
    6.1538    0.5736   -0.3773 C   0  0  0  0  0  0  0  0  0  0  0  0
    5.5650   -0.6734   -0.6005 C   0  0  0  0  0  0  0  0  0  0  0  0
    4.1747   -0.7858   -0.7221 C   0  0  0  0  0  0  0  0  0  0  0  0
    3.5972   -2.0724   -0.9339 N   0  0  0  0  0  1  0  0  0  0  0  0
   -0.8618   -1.3453    0.2563 C   0  0  0  0  0  0  0  0  0  0  0  0
   -2.2515   -1.4291    0.1347 C   0  0  0  0  0  0  0  0  0  0  0  0
   -5.3309    1.4796    0.7968 H   0  0  0  0  0  0  0  0  0  0  0  0
   -4.8629    1.3893   -0.9559 H   0  0  0  0  0  0  0  0  0  0  0  0
   -6.3487    0.5740   -0.3776 H   0  0  0  0  0  0  0  0  0  0  0  0
   -6.2922   -1.5306    0.4082 H   0  0  0  0  0  0  0  0  0  0  0  0
   -4.9905   -2.2983   -0.5673 H   0  0  0  0  0  0  0  0  0  0  0  0
   -4.8416   -2.1734    1.2386 H   0  0  0  0  0  0  0  0  0  0  0  0
   -3.0053    1.8485    0.7222 H   0  0  0  0  0  0  0  0  0  0  0  0
   -0.5816    1.9814    0.9176 H   0  0  0  0  0  0  0  0  0  0  0  0
    1.6634   -0.9824    1.0429 H   0  0  0  0  0  0  0  0  0  0  0  0
    1.5332    0.7744    1.3680 H   0  0  0  0  0  0  0  0  0  0  0  0
    1.4470    1.2325   -1.1102 H   0  0  0  0  0  0  0  0  0  0  0  0
    1.5694   -0.5169   -1.4486 H   0  0  0  0  0  0  0  0  0  0  0  0
    3.3622    2.5053   -0.2945 H   0  0  0  0  0  0  0  0  0  0  0  0
    5.8133    2.6785   -0.0896 H   0  0  0  0  0  0  0  0  0  0  0  0
    7.2290    0.6549   -0.2826 H   0  0  0  0  0  0  0  0  0  0  0  0
    6.1905   -1.5542   -0.6750 H   0  0  0  0  0  0  0  0  0  0  0  0
   -0.2628   -2.2365    0.1139 H   0  0  0  0  0  0  0  0  0  0  0  0
   -2.6835   -2.3913   -0.1018 H   0  0  0  0  0  0  0  0  0  0  0  0
  1  2  1  0
  2  3  1  0
  2  4  1  0
  4  5  1  0
  5  6  2  0
  6  7  1  0
  7  8  1  0
  8  9  1  0
  9 10  1  0
 10 11  2  0
 11 12  1  0
 12 13  2  0
 13 14  1  0
 14 15  2  0
 15 16  1  0
  7 17  2  0
 17 18  1  0
 18  4  2  0
 15 10  1  0
  1 19  1  0
  1 20  1  0
  1 21  1  0
  3 22  1  0
  3 23  1  0
  3 24  1  0
  5 25  1  0
  6 26  1  0
  8 27  1  0
  8 28  1  0
  9 29  1  0
  9 30  1  0
 11 31  1  0
 12 32  1  0
 13 33  1  0
 14 34  1  0
 17 35  1  0
 18 36  1  0
M  RAD  1  16   3
M  END
$$$$
