
     RDKit          3D

 31 33  0  0  0  0  0  0  0  0999 V2000
   -3.5258   -1.9364   -1.3828 N   0  0  0  0  0  1  0  0  0  0  0  0
   -3.0387   -0.6359   -1.0592 C   0  0  0  0  0  0  0  0  0  0  0  0
   -3.2549    0.4169   -1.9565 C   0  0  0  0  0  0  0  0  0  0  0  0
   -2.7773    1.6975   -1.6679 C   0  0  0  0  0  0  0  0  0  0  0  0
   -2.0807    1.9329   -0.4811 C   0  0  0  0  0  0  0  0  0  0  0  0
   -1.8624    0.8892    0.4217 C   0  0  0  0  0  0  0  0  0  0  0  0
   -2.3426   -0.4037    0.1462 C   0  0  0  0  0  0  0  0  0  0  0  0
   -2.0494   -1.5290    1.1124 C   0  0  0  0  0  0  0  0  0  0  0  0
   -0.8311   -2.3543    0.6769 C   0  0  0  0  0  0  0  0  0  0  0  0
    0.4218   -1.5314    0.6749 C   0  0  0  0  0  0  0  0  0  0  0  0
    0.9484   -0.8680   -0.4341 C   0  0  0  0  0  0  0  0  0  0  0  0
    2.0677   -0.0967   -0.1078 C   0  0  0  0  0  0  0  0  0  0  0  0
    2.8142    0.6879   -0.9908 C   0  0  0  0  0  0  0  0  0  0  0  0
    3.9098    1.4124   -0.4909 C   0  0  0  0  0  0  0  0  0  0  0  0
    4.2441    1.3486    0.8762 C   0  0  0  0  0  0  0  0  0  0  0  0
    3.4853    0.5606    1.7558 C   0  0  0  0  0  0  0  0  0  0  0  0
    2.4059   -0.1502    1.2368 C   0  0  0  0  0  0  0  0  0  0  0  0
    1.3269   -1.1454    2.0521 S   0  0  0  0  0  0  0  0  0  0  0  0
   -3.7902    0.2420   -2.8813 H   0  0  0  0  0  0  0  0  0  0  0  0
   -2.9444    2.5072   -2.3664 H   0  0  0  0  0  0  0  0  0  0  0  0
   -1.7056    2.9242   -0.2621 H   0  0  0  0  0  0  0  0  0  0  0  0
   -1.3082    1.0864    1.3311 H   0  0  0  0  0  0  0  0  0  0  0  0
   -2.9331   -2.1990    1.1837 H   0  0  0  0  0  0  0  0  0  0  0  0
   -1.8791   -1.1275    2.1359 H   0  0  0  0  0  0  0  0  0  0  0  0
   -0.6999   -3.2027    1.3819 H   0  0  0  0  0  0  0  0  0  0  0  0
   -1.0023   -2.7840   -0.3338 H   0  0  0  0  0  0  0  0  0  0  0  0
    0.5245   -0.9277   -1.4286 H   0  0  0  0  0  0  0  0  0  0  0  0
    2.5565    0.7402   -2.0411 H   0  0  0  0  0  0  0  0  0  0  0  0
    4.4997    2.0247   -1.1606 H   0  0  0  0  0  0  0  0  0  0  0  0
    5.0888    1.9119    1.2509 H   0  0  0  0  0  0  0  0  0  0  0  0
    3.7321    0.5094    2.8083 H   0  0  0  0  0  0  0  0  0  0  0  0
  1  2  1  0
  2  3  2  0
  3  4  1  0
  4  5  2  0
  5  6  1  0
  6  7  2  0
  7  8  1  0
  8  9  1  0
  9 10  1  0
 10 11  2  0
 11 12  1  0
 12 13  2  0
 13 14  1  0
 14 15  2  0
 15 16  1  0
 16 17  2  0
 17 18  1  0
  7  2  1  0
 17 12  1  0
 18 10  1  0
  3 19  1  0
  4 20  1  0
  5 21  1  0
  6 22  1  0
  8 23  1  0
  8 24  1  0
  9 25  1  0
  9 26  1  0
 11 27  1  0
 13 28  1  0
 14 29  1  0
 15 30  1  0
 16 31  1  0
M  RAD  1   1   3
M  END
$$$$
