
     RDKit          3D

 31 33  0  0  0  0  0  0  0  0999 V2000
   -3.5981    0.1029    2.2643 N   0  0  0  0  0  1  0  0  0  0  0  0
   -3.1500    0.0333    0.9124 C   0  0  0  0  0  0  0  0  0  0  0  0
   -3.7186   -0.9141    0.0525 C   0  0  0  0  0  0  0  0  0  0  0  0
   -3.2885   -1.0101   -1.2730 C   0  0  0  0  0  0  0  0  0  0  0  0
   -2.2874   -0.1600   -1.7464 C   0  0  0  0  0  0  0  0  0  0  0  0
   -1.7159    0.7904   -0.8967 C   0  0  0  0  0  0  0  0  0  0  0  0
   -2.1434    0.9015    0.4386 C   0  0  0  0  0  0  0  0  0  0  0  0
   -1.4745    1.9013    1.3544 C   0  0  0  0  0  0  0  0  0  0  0  0
   -0.3794    1.2502    2.2100 C   0  0  0  0  0  0  0  0  0  0  0  0
    0.7375    0.7160    1.3652 C   0  0  0  0  0  0  0  0  0  0  0  0
    0.8431   -0.5973    0.9053 C   0  0  0  0  0  0  0  0  0  0  0  0
    1.9375   -0.7741    0.0537 C   0  0  0  0  0  0  0  0  0  0  0  0
    2.3098   -1.9657   -0.5738 C   0  0  0  0  0  0  0  0  0  0  0  0
    3.4386   -1.9651   -1.4111 C   0  0  0  0  0  0  0  0  0  0  0  0
    4.1765   -0.7822   -1.6138 C   0  0  0  0  0  0  0  0  0  0  0  0
    3.7918    0.4107   -0.9817 C   0  0  0  0  0  0  0  0  0  0  0  0
    2.6714    0.3848   -0.1549 C   0  0  0  0  0  0  0  0  0  0  0  0
    1.9813    1.6531    0.7021 S   0  0  0  0  0  0  0  0  0  0  0  0
   -4.4924   -1.5805    0.4130 H   0  0  0  0  0  0  0  0  0  0  0  0
   -3.7292   -1.7464   -1.9327 H   0  0  0  0  0  0  0  0  0  0  0  0
   -1.9506   -0.2401   -2.7719 H   0  0  0  0  0  0  0  0  0  0  0  0
   -0.9308    1.4326   -1.2767 H   0  0  0  0  0  0  0  0  0  0  0  0
   -1.0367    2.7364    0.7640 H   0  0  0  0  0  0  0  0  0  0  0  0
   -2.2334    2.3585    2.0252 H   0  0  0  0  0  0  0  0  0  0  0  0
   -0.8118    0.4321    2.8258 H   0  0  0  0  0  0  0  0  0  0  0  0
    0.0325    2.0103    2.9076 H   0  0  0  0  0  0  0  0  0  0  0  0
    0.1439   -1.3831    1.1622 H   0  0  0  0  0  0  0  0  0  0  0  0
    1.7417   -2.8748   -0.4214 H   0  0  0  0  0  0  0  0  0  0  0  0
    3.7419   -2.8792   -1.9047 H   0  0  0  0  0  0  0  0  0  0  0  0
    5.0431   -0.7925   -2.2620 H   0  0  0  0  0  0  0  0  0  0  0  0
    4.3501    1.3250   -1.1354 H   0  0  0  0  0  0  0  0  0  0  0  0
  1  2  1  0
  2  3  2  0
  3  4  1  0
  4  5  2  0
  5  6  1  0
  6  7  2  0
  7  8  1  0
  8  9  1  0
  9 10  1  0
 10 11  2  0
 11 12  1  0
 12 13  2  0
 13 14  1  0
 14 15  2  0
 15 16  1  0
 16 17  2  0
 17 18  1  0
  7  2  1  0
 17 12  1  0
 18 10  1  0
  3 19  1  0
  4 20  1  0
  5 21  1  0
  6 22  1  0
  8 23  1  0
  8 24  1  0
  9 25  1  0
  9 26  1  0
 11 27  1  0
 13 28  1  0
 14 29  1  0
 15 30  1  0
 16 31  1  0
M  RAD  1   1   3
M  END
$$$$
