
     RDKit          3D

 31 33  0  0  0  0  0  0  0  0999 V2000
    3.6547   -1.1711   -1.8345 N   0  0  0  0  0  1  0  0  0  0  0  0
    3.1685   -0.3546   -0.7714 C   0  0  0  0  0  0  0  0  0  0  0  0
    3.6415    0.9573   -0.6469 C   0  0  0  0  0  0  0  0  0  0  0  0
    3.1719    1.7810    0.3790 C   0  0  0  0  0  0  0  0  0  0  0  0
    2.2267    1.2981    1.2858 C   0  0  0  0  0  0  0  0  0  0  0  0
    1.7507   -0.0104    1.1713 C   0  0  0  0  0  0  0  0  0  0  0  0
    2.2191   -0.8521    0.1466 C   0  0  0  0  0  0  0  0  0  0  0  0
    1.6515   -2.2468    0.0100 C   0  0  0  0  0  0  0  0  0  0  0  0
    0.5322   -2.3089   -1.0380 C   0  0  0  0  0  0  0  0  0  0  0  0
   -0.6432   -1.4673   -0.6418 C   0  0  0  0  0  0  0  0  0  0  0  0
   -0.8598   -0.1473   -1.0394 C   0  0  0  0  0  0  0  0  0  0  0  0
   -1.9858    0.4121   -0.4282 C   0  0  0  0  0  0  0  0  0  0  0  0
   -2.4633    1.7123   -0.6123 C   0  0  0  0  0  0  0  0  0  0  0  0
   -3.6095    2.1179    0.0926 C   0  0  0  0  0  0  0  0  0  0  0  0
   -4.2603    1.2280    0.9697 C   0  0  0  0  0  0  0  0  0  0  0  0
   -3.7703   -0.0749    1.1506 C   0  0  0  0  0  0  0  0  0  0  0  0
   -2.6345   -0.4546    0.4395 C   0  0  0  0  0  0  0  0  0  0  0  0
   -1.8286   -1.9271    0.4754 S   0  0  0  0  0  0  0  0  0  0  0  0
    4.3713    1.3412   -1.3488 H   0  0  0  0  0  0  0  0  0  0  0  0
    3.5385    2.7954    0.4689 H   0  0  0  0  0  0  0  0  0  0  0  0
    1.8589    1.9398    2.0761 H   0  0  0  0  0  0  0  0  0  0  0  0
    1.0074   -0.3642    1.8752 H   0  0  0  0  0  0  0  0  0  0  0  0
    2.4597   -2.9513   -0.2821 H   0  0  0  0  0  0  0  0  0  0  0  0
    1.2636   -2.6057    0.9890 H   0  0  0  0  0  0  0  0  0  0  0  0
    0.9166   -1.9790   -2.0274 H   0  0  0  0  0  0  0  0  0  0  0  0
    0.1970   -3.3625   -1.1453 H   0  0  0  0  0  0  0  0  0  0  0  0
   -0.2161    0.3880   -1.7261 H   0  0  0  0  0  0  0  0  0  0  0  0
   -1.9622    2.3982   -1.2837 H   0  0  0  0  0  0  0  0  0  0  0  0
   -3.9939    3.1210   -0.0383 H   0  0  0  0  0  0  0  0  0  0  0  0
   -5.1413    1.5511    1.5088 H   0  0  0  0  0  0  0  0  0  0  0  0
   -4.2611   -0.7636    1.8259 H   0  0  0  0  0  0  0  0  0  0  0  0
  1  2  1  0
  2  3  2  0
  3  4  1  0
  4  5  2  0
  5  6  1  0
  6  7  2  0
  7  8  1  0
  8  9  1  0
  9 10  1  0
 10 11  2  0
 11 12  1  0
 12 13  2  0
 13 14  1  0
 14 15  2  0
 15 16  1  0
 16 17  2  0
 17 18  1  0
  7  2  1  0
 17 12  1  0
 18 10  1  0
  3 19  1  0
  4 20  1  0
  5 21  1  0
  6 22  1  0
  8 23  1  0
  8 24  1  0
  9 25  1  0
  9 26  1  0
 11 27  1  0
 13 28  1  0
 14 29  1  0
 15 30  1  0
 16 31  1  0
M  RAD  1   1   3
M  END
$$$$
