
     RDKit          3D

 31 33  0  0  0  0  0  0  0  0999 V2000
    2.8931   -1.9918    0.8583 N   0  0  0  0  0  1  0  0  0  0  0  0
    3.5098   -0.9186    0.1501 C   0  0  0  0  0  0  0  0  0  0  0  0
    4.8514   -1.0356   -0.2335 C   0  0  0  0  0  0  0  0  0  0  0  0
    5.4740   -0.0048   -0.9413 C   0  0  0  0  0  0  0  0  0  0  0  0
    4.7578    1.1467   -1.2738 C   0  0  0  0  0  0  0  0  0  0  0  0
    3.4185    1.2729   -0.8951 C   0  0  0  0  0  0  0  0  0  0  0  0
    2.7843    0.2493   -0.1693 C   0  0  0  0  0  0  0  0  0  0  0  0
    1.3284    0.3934    0.2002 C   0  0  0  0  0  0  0  0  0  0  0  0
    0.4354   -0.2232   -0.8793 C   0  0  0  0  0  0  0  0  0  0  0  0
   -1.0077   -0.0799   -0.5108 C   0  0  0  0  0  0  0  0  0  0  0  0
   -1.7263   -0.9626    0.2959 C   0  0  0  0  0  0  0  0  0  0  0  0
   -3.0358   -0.5269    0.5219 C   0  0  0  0  0  0  0  0  0  0  0  0
   -4.0049   -1.1864    1.2826 C   0  0  0  0  0  0  0  0  0  0  0  0
   -5.2764   -0.6017    1.4123 C   0  0  0  0  0  0  0  0  0  0  0  0
   -5.5640    0.6277    0.7873 C   0  0  0  0  0  0  0  0  0  0  0  0
   -4.5829    1.2835    0.0272 C   0  0  0  0  0  0  0  0  0  0  0  0
   -3.3312    0.6838   -0.0885 C   0  0  0  0  0  0  0  0  0  0  0  0
   -1.9822    1.2431   -0.9173 S   0  0  0  0  0  0  0  0  0  0  0  0
    5.4118   -1.9287    0.0138 H   0  0  0  0  0  0  0  0  0  0  0  0
    6.5108   -0.1009   -1.2367 H   0  0  0  0  0  0  0  0  0  0  0  0
    5.2398    1.9414   -1.8285 H   0  0  0  0  0  0  0  0  0  0  0  0
    2.8748    2.1686   -1.1692 H   0  0  0  0  0  0  0  0  0  0  0  0
    1.1325   -0.0959    1.1794 H   0  0  0  0  0  0  0  0  0  0  0  0
    1.0745    1.4699    0.3220 H   0  0  0  0  0  0  0  0  0  0  0  0
    0.6771   -1.3015   -1.0021 H   0  0  0  0  0  0  0  0  0  0  0  0
    0.6153    0.2842   -1.8519 H   0  0  0  0  0  0  0  0  0  0  0  0
   -1.3133   -1.8756    0.7060 H   0  0  0  0  0  0  0  0  0  0  0  0
   -3.7848   -2.1304    1.7651 H   0  0  0  0  0  0  0  0  0  0  0  0
   -6.0393   -1.0989    1.9972 H   0  0  0  0  0  0  0  0  0  0  0  0
   -6.5461    1.0696    0.8945 H   0  0  0  0  0  0  0  0  0  0  0  0
   -4.7944    2.2294   -0.4542 H   0  0  0  0  0  0  0  0  0  0  0  0
  1  2  1  0
  2  3  2  0
  3  4  1  0
  4  5  2  0
  5  6  1  0
  6  7  2  0
  7  8  1  0
  8  9  1  0
  9 10  1  0
 10 11  2  0
 11 12  1  0
 12 13  2  0
 13 14  1  0
 14 15  2  0
 15 16  1  0
 16 17  2  0
 17 18  1  0
  7  2  1  0
 17 12  1  0
 18 10  1  0
  3 19  1  0
  4 20  1  0
  5 21  1  0
  6 22  1  0
  8 23  1  0
  8 24  1  0
  9 25  1  0
  9 26  1  0
 11 27  1  0
 13 28  1  0
 14 29  1  0
 15 30  1  0
 16 31  1  0
M  RAD  1   1   3
M  END
$$$$
