
     RDKit          3D

 31 33  0  0  0  0  0  0  0  0999 V2000
   -3.8767   -1.4164    1.0287 N   0  0  0  0  0  1  0  0  0  0  0  0
   -3.2413   -0.3044    0.4017 C   0  0  0  0  0  0  0  0  0  0  0  0
   -3.6054    0.9931    0.7812 C   0  0  0  0  0  0  0  0  0  0  0  0
   -2.9893    2.0988    0.1903 C   0  0  0  0  0  0  0  0  0  0  0  0
   -2.0055    1.9137   -0.7828 C   0  0  0  0  0  0  0  0  0  0  0  0
   -1.6373    0.6228   -1.1699 C   0  0  0  0  0  0  0  0  0  0  0  0
   -2.2535   -0.4991   -0.5871 C   0  0  0  0  0  0  0  0  0  0  0  0
   -1.8024   -1.8868   -0.9832 C   0  0  0  0  0  0  0  0  0  0  0  0
   -0.7869   -2.4642    0.0119 C   0  0  0  0  0  0  0  0  0  0  0  0
    0.4765   -1.6582    0.0425 C   0  0  0  0  0  0  0  0  0  0  0  0
    0.7523   -0.6259    0.9400 C   0  0  0  0  0  0  0  0  0  0  0  0
    1.9651    0.0103    0.6594 C   0  0  0  0  0  0  0  0  0  0  0  0
    2.5174    1.0812    1.3669 C   0  0  0  0  0  0  0  0  0  0  0  0
    3.7475    1.6107    0.9406 C   0  0  0  0  0  0  0  0  0  0  0  0
    4.4067    1.0711   -0.1815 C   0  0  0  0  0  0  0  0  0  0  0  0
    3.8415   -0.0023   -0.8877 C   0  0  0  0  0  0  0  0  0  0  0  0
    2.6231   -0.5117   -0.4450 C   0  0  0  0  0  0  0  0  0  0  0  0
    1.7190   -1.7648   -1.1019 S   0  0  0  0  0  0  0  0  0  0  0  0
   -4.3643    1.1455    1.5385 H   0  0  0  0  0  0  0  0  0  0  0  0
   -3.2723    3.0997    0.4895 H   0  0  0  0  0  0  0  0  0  0  0  0
   -1.5244    2.7714   -1.2348 H   0  0  0  0  0  0  0  0  0  0  0  0
   -0.8626    0.4973   -1.9164 H   0  0  0  0  0  0  0  0  0  0  0  0
   -1.3571   -1.8740   -2.0026 H   0  0  0  0  0  0  0  0  0  0  0  0
   -2.6820   -2.5639   -1.0360 H   0  0  0  0  0  0  0  0  0  0  0  0
   -1.2318   -2.5079    1.0296 H   0  0  0  0  0  0  0  0  0  0  0  0
   -0.5395   -3.5046   -0.2885 H   0  0  0  0  0  0  0  0  0  0  0  0
    0.0912   -0.3376    1.7476 H   0  0  0  0  0  0  0  0  0  0  0  0
    2.0103    1.4989    2.2275 H   0  0  0  0  0  0  0  0  0  0  0  0
    4.1904    2.4397    1.4771 H   0  0  0  0  0  0  0  0  0  0  0  0
    5.3527    1.4875   -0.5022 H   0  0  0  0  0  0  0  0  0  0  0  0
    4.3386   -0.4200   -1.7535 H   0  0  0  0  0  0  0  0  0  0  0  0
  1  2  1  0
  2  3  2  0
  3  4  1  0
  4  5  2  0
  5  6  1  0
  6  7  2  0
  7  8  1  0
  8  9  1  0
  9 10  1  0
 10 11  2  0
 11 12  1  0
 12 13  2  0
 13 14  1  0
 14 15  2  0
 15 16  1  0
 16 17  2  0
 17 18  1  0
  7  2  1  0
 17 12  1  0
 18 10  1  0
  3 19  1  0
  4 20  1  0
  5 21  1  0
  6 22  1  0
  8 23  1  0
  8 24  1  0
  9 25  1  0
  9 26  1  0
 11 27  1  0
 13 28  1  0
 14 29  1  0
 15 30  1  0
 16 31  1  0
M  RAD  1   1   3
M  END
$$$$
