
     RDKit          3D

 31 33  0  0  0  0  0  0  0  0999 V2000
   -2.5335   -2.8941    0.3845 N   0  0  0  0  0  1  0  0  0  0  0  0
   -3.3240   -1.7411    0.1029 C   0  0  0  0  0  0  0  0  0  0  0  0
   -4.7088   -1.7978    0.3020 C   0  0  0  0  0  0  0  0  0  0  0  0
   -5.5033   -0.6773    0.0480 C   0  0  0  0  0  0  0  0  0  0  0  0
   -4.9174    0.5075   -0.4020 C   0  0  0  0  0  0  0  0  0  0  0  0
   -3.5362    0.5738   -0.6038 C   0  0  0  0  0  0  0  0  0  0  0  0
   -2.7271   -0.5512   -0.3665 C   0  0  0  0  0  0  0  0  0  0  0  0
   -1.2343   -0.4465   -0.5602 C   0  0  0  0  0  0  0  0  0  0  0  0
   -0.5486   -0.0441    0.7478 C   0  0  0  0  0  0  0  0  0  0  0  0
    0.9320    0.0543    0.5549 C   0  0  0  0  0  0  0  0  0  0  0  0
    1.6136    1.1825    0.0978 C   0  0  0  0  0  0  0  0  0  0  0  0
    2.9846    0.9493   -0.0492 C   0  0  0  0  0  0  0  0  0  0  0  0
    3.9370    1.8752   -0.4836 C   0  0  0  0  0  0  0  0  0  0  0  0
    5.2793    1.4700   -0.5805 C   0  0  0  0  0  0  0  0  0  0  0  0
    5.6535    0.1533   -0.2471 C   0  0  0  0  0  0  0  0  0  0  0  0
    4.6889   -0.7700    0.1859 C   0  0  0  0  0  0  0  0  0  0  0  0
    3.3656   -0.3449    0.2758 C   0  0  0  0  0  0  0  0  0  0  0  0
    2.0187   -1.2289    0.7487 S   0  0  0  0  0  0  0  0  0  0  0  0
   -5.1701   -2.7105    0.6580 H   0  0  0  0  0  0  0  0  0  0  0  0
   -6.5731   -0.7259    0.2048 H   0  0  0  0  0  0  0  0  0  0  0  0
   -5.5337    1.3769   -0.5914 H   0  0  0  0  0  0  0  0  0  0  0  0
   -3.0966    1.5033   -0.9442 H   0  0  0  0  0  0  0  0  0  0  0  0
   -1.0077    0.3083   -1.3458 H   0  0  0  0  0  0  0  0  0  0  0  0
   -0.8264   -1.4167   -0.9192 H   0  0  0  0  0  0  0  0  0  0  0  0
   -0.9406    0.9375    1.0932 H   0  0  0  0  0  0  0  0  0  0  0  0
   -0.7629   -0.7983    1.5356 H   0  0  0  0  0  0  0  0  0  0  0  0
    1.1334    2.1270   -0.1249 H   0  0  0  0  0  0  0  0  0  0  0  0
    3.6506    2.8869   -0.7418 H   0  0  0  0  0  0  0  0  0  0  0  0
    6.0303    2.1741   -0.9144 H   0  0  0  0  0  0  0  0  0  0  0  0
    6.6897   -0.1485   -0.3264 H   0  0  0  0  0  0  0  0  0  0  0  0
    4.9671   -1.7842    0.4415 H   0  0  0  0  0  0  0  0  0  0  0  0
  1  2  1  0
  2  3  2  0
  3  4  1  0
  4  5  2  0
  5  6  1  0
  6  7  2  0
  7  8  1  0
  8  9  1  0
  9 10  1  0
 10 11  2  0
 11 12  1  0
 12 13  2  0
 13 14  1  0
 14 15  2  0
 15 16  1  0
 16 17  2  0
 17 18  1  0
  7  2  1  0
 17 12  1  0
 18 10  1  0
  3 19  1  0
  4 20  1  0
  5 21  1  0
  6 22  1  0
  8 23  1  0
  8 24  1  0
  9 25  1  0
  9 26  1  0
 11 27  1  0
 13 28  1  0
 14 29  1  0
 15 30  1  0
 16 31  1  0
M  RAD  1   1   3
M  END
$$$$
