
     RDKit          3D

 31 32  0  0  0  0  0  0  0  0999 V2000
    2.7256    2.6074    0.1235 C   0  0  0  0  0  0  0  0  0  0  0  0
    2.3106    1.1702    0.2384 C   0  0  0  0  0  0  0  0  0  0  0  0
    2.9930    0.3064    1.0997 C   0  0  0  0  0  0  0  0  0  0  0  0
    2.5926   -1.0234    1.2254 C   0  0  0  0  0  0  0  0  0  0  0  0
    1.4878   -1.5153    0.5107 C   0  0  0  0  0  0  0  0  0  0  0  0
    1.0814   -3.2335    0.6756 S   0  0  0  0  0  0  0  0  0  0  0  0
   -0.4818   -3.4063    1.3899 N   0  0  0  0  0  1  0  0  0  0  0  0
    2.0858   -3.9265    1.5533 O   0  0  0  0  0  0  0  0  0  0  0  0
    1.0985   -3.8886   -0.6769 O   0  0  0  0  0  0  0  0  0  0  0  0
    0.7571   -0.6318   -0.3301 C   0  0  0  0  0  0  0  0  0  0  0  0
   -0.4666   -1.0572   -1.1184 C   0  0  0  0  0  0  0  0  0  0  0  0
   -1.6686   -0.2221   -0.7527 C   0  0  0  0  0  0  0  0  0  0  0  0
   -2.1973    0.7068   -1.6659 C   0  0  0  0  0  0  0  0  0  0  0  0
   -3.3026    1.4885   -1.3158 C   0  0  0  0  0  0  0  0  0  0  0  0
   -3.8864    1.3514   -0.0537 C   0  0  0  0  0  0  0  0  0  0  0  0
   -3.3649    0.4334    0.8615 C   0  0  0  0  0  0  0  0  0  0  0  0
   -2.2598   -0.3503    0.5157 C   0  0  0  0  0  0  0  0  0  0  0  0
    1.1933    0.7010   -0.4629 C   0  0  0  0  0  0  0  0  0  0  0  0
    2.5063    2.9977   -0.8932 H   0  0  0  0  0  0  0  0  0  0  0  0
    2.1712    3.2123    0.8710 H   0  0  0  0  0  0  0  0  0  0  0  0
    3.8160    2.7178    0.3048 H   0  0  0  0  0  0  0  0  0  0  0  0
    3.8443    0.6596    1.6689 H   0  0  0  0  0  0  0  0  0  0  0  0
    3.1563   -1.6702    1.8846 H   0  0  0  0  0  0  0  0  0  0  0  0
   -0.7338   -2.1184   -0.9630 H   0  0  0  0  0  0  0  0  0  0  0  0
   -0.2363   -0.9578   -2.2015 H   0  0  0  0  0  0  0  0  0  0  0  0
   -1.7530    0.8290   -2.6459 H   0  0  0  0  0  0  0  0  0  0  0  0
   -3.7056    2.2022   -2.0228 H   0  0  0  0  0  0  0  0  0  0  0  0
   -4.7413    1.9580    0.2158 H   0  0  0  0  0  0  0  0  0  0  0  0
   -3.8155    0.3305    1.8402 H   0  0  0  0  0  0  0  0  0  0  0  0
   -1.8614   -1.0508    1.2375 H   0  0  0  0  0  0  0  0  0  0  0  0
    0.6549    1.3801   -1.1137 H   0  0  0  0  0  0  0  0  0  0  0  0
  1  2  1  0
  2  3  1  0
  3  4  2  0
  4  5  1  0
  5  6  1  0
  6  7  1  0
  6  8  2  0
  6  9  2  0
  5 10  2  0
 10 11  1  0
 11 12  1  0
 12 13  2  0
 13 14  1  0
 14 15  2  0
 15 16  1  0
 16 17  2  0
 10 18  1  0
 18  2  2  0
 17 12  1  0
  1 19  1  0
  1 20  1  0
  1 21  1  0
  3 22  1  0
  4 23  1  0
 11 24  1  0
 11 25  1  0
 13 26  1  0
 14 27  1  0
 15 28  1  0
 16 29  1  0
 17 30  1  0
 18 31  1  0
M  RAD  1   7   3
M  END
$$$$
