
     RDKit          3D

 31 32  0  0  0  0  0  0  0  0999 V2000
   -3.1439   -2.8883   -0.4936 C   0  0  0  0  0  0  0  0  0  0  0  0
   -2.5479   -1.5516   -0.1633 C   0  0  0  0  0  0  0  0  0  0  0  0
   -3.0172   -0.8232    0.9331 C   0  0  0  0  0  0  0  0  0  0  0  0
   -2.4357    0.3993    1.2671 C   0  0  0  0  0  0  0  0  0  0  0  0
   -1.3677    0.9202    0.5180 C   0  0  0  0  0  0  0  0  0  0  0  0
   -0.6704    2.4708    1.0266 S   0  0  0  0  0  0  0  0  0  0  0  0
   -1.6958    3.2374    2.1882 N   0  0  0  0  0  1  0  0  0  0  0  0
   -0.5285    3.3986   -0.1462 O   0  0  0  0  0  0  0  0  0  0  0  0
    0.6726    2.2384    1.6574 O   0  0  0  0  0  0  0  0  0  0  0  0
   -0.8694    0.1759   -0.5866 C   0  0  0  0  0  0  0  0  0  0  0  0
    0.3057    0.6337   -1.4282 C   0  0  0  0  0  0  0  0  0  0  0  0
    1.6237    0.4527   -0.7168 C   0  0  0  0  0  0  0  0  0  0  0  0
    2.5399    1.5168   -0.6449 C   0  0  0  0  0  0  0  0  0  0  0  0
    3.7746    1.3441   -0.0119 C   0  0  0  0  0  0  0  0  0  0  0  0
    4.1127    0.1054    0.5387 C   0  0  0  0  0  0  0  0  0  0  0  0
    3.2194   -0.9652    0.4510 C   0  0  0  0  0  0  0  0  0  0  0  0
    1.9835   -0.7973   -0.1808 C   0  0  0  0  0  0  0  0  0  0  0  0
   -1.4670   -1.0591   -0.9045 C   0  0  0  0  0  0  0  0  0  0  0  0
   -4.2122   -2.9282   -0.1914 H   0  0  0  0  0  0  0  0  0  0  0  0
   -3.0898   -3.0814   -1.5862 H   0  0  0  0  0  0  0  0  0  0  0  0
   -2.5859   -3.6838    0.0429 H   0  0  0  0  0  0  0  0  0  0  0  0
   -3.8336   -1.2035    1.5348 H   0  0  0  0  0  0  0  0  0  0  0  0
   -2.8213    0.9330    2.1250 H   0  0  0  0  0  0  0  0  0  0  0  0
    0.1550    1.6851   -1.7424 H   0  0  0  0  0  0  0  0  0  0  0  0
    0.3527    0.0583   -2.3783 H   0  0  0  0  0  0  0  0  0  0  0  0
    2.2963    2.4824   -1.0704 H   0  0  0  0  0  0  0  0  0  0  0  0
    4.4708    2.1706    0.0494 H   0  0  0  0  0  0  0  0  0  0  0  0
    5.0693   -0.0266    1.0273 H   0  0  0  0  0  0  0  0  0  0  0  0
    3.4865   -1.9272    0.8688 H   0  0  0  0  0  0  0  0  0  0  0  0
    1.3090   -1.6410   -0.2510 H   0  0  0  0  0  0  0  0  0  0  0  0
   -1.0856   -1.6463   -1.7318 H   0  0  0  0  0  0  0  0  0  0  0  0
  1  2  1  0
  2  3  1  0
  3  4  2  0
  4  5  1  0
  5  6  1  0
  6  7  1  0
  6  8  2  0
  6  9  2  0
  5 10  2  0
 10 11  1  0
 11 12  1  0
 12 13  2  0
 13 14  1  0
 14 15  2  0
 15 16  1  0
 16 17  2  0
 10 18  1  0
 18  2  2  0
 17 12  1  0
  1 19  1  0
  1 20  1  0
  1 21  1  0
  3 22  1  0
  4 23  1  0
 11 24  1  0
 11 25  1  0
 13 26  1  0
 14 27  1  0
 15 28  1  0
 16 29  1  0
 17 30  1  0
 18 31  1  0
M  RAD  1   7   3
M  END
$$$$
