
     RDKit          3D

 31 32  0  0  0  0  0  0  0  0999 V2000
   -3.1563    2.8942   -0.3624 C   0  0  0  0  0  0  0  0  0  0  0  0
   -2.5563    1.5218   -0.2737 C   0  0  0  0  0  0  0  0  0  0  0  0
   -3.1854    0.5258    0.4781 C   0  0  0  0  0  0  0  0  0  0  0  0
   -2.6072   -0.7374    0.5968 C   0  0  0  0  0  0  0  0  0  0  0  0
   -1.3842   -1.0340   -0.0271 C   0  0  0  0  0  0  0  0  0  0  0  0
   -0.7069   -2.6591    0.1955 S   0  0  0  0  0  0  0  0  0  0  0  0
   -1.8906   -3.7129    0.8856 N   0  0  0  0  0  1  0  0  0  0  0  0
    0.4709   -2.5928    1.1251 O   0  0  0  0  0  0  0  0  0  0  0  0
   -0.2832   -3.2421   -1.1225 O   0  0  0  0  0  0  0  0  0  0  0  0
   -0.7261   -0.0203   -0.7766 C   0  0  0  0  0  0  0  0  0  0  0  0
    0.6160   -0.2307   -1.4499 C   0  0  0  0  0  0  0  0  0  0  0  0
    1.7567   -0.2355   -0.4625 C   0  0  0  0  0  0  0  0  0  0  0  0
    2.7040   -1.2743   -0.4822 C   0  0  0  0  0  0  0  0  0  0  0  0
    3.7789   -1.2669    0.4120 C   0  0  0  0  0  0  0  0  0  0  0  0
    3.9275   -0.2159    1.3203 C   0  0  0  0  0  0  0  0  0  0  0  0
    3.0054    0.8335    1.3314 C   0  0  0  0  0  0  0  0  0  0  0  0
    1.9287    0.8304    0.4395 C   0  0  0  0  0  0  0  0  0  0  0  0
   -1.3240    1.2507   -0.8803 C   0  0  0  0  0  0  0  0  0  0  0  0
   -2.9018    3.3702   -1.3333 H   0  0  0  0  0  0  0  0  0  0  0  0
   -2.7631    3.5229    0.4635 H   0  0  0  0  0  0  0  0  0  0  0  0
   -4.2635    2.8452   -0.2849 H   0  0  0  0  0  0  0  0  0  0  0  0
   -4.1250    0.7276    0.9780 H   0  0  0  0  0  0  0  0  0  0  0  0
   -3.1196   -1.4820    1.1907 H   0  0  0  0  0  0  0  0  0  0  0  0
    0.5933   -1.1624   -2.0485 H   0  0  0  0  0  0  0  0  0  0  0  0
    0.8123    0.5761   -2.1892 H   0  0  0  0  0  0  0  0  0  0  0  0
    2.6069   -2.0944   -1.1828 H   0  0  0  0  0  0  0  0  0  0  0  0
    4.4985   -2.0753    0.3987 H   0  0  0  0  0  0  0  0  0  0  0  0
    4.7608   -0.2114    2.0110 H   0  0  0  0  0  0  0  0  0  0  0  0
    3.1272    1.6524    2.0286 H   0  0  0  0  0  0  0  0  0  0  0  0
    1.2311    1.6579    0.4531 H   0  0  0  0  0  0  0  0  0  0  0  0
   -0.8248    2.0387   -1.4323 H   0  0  0  0  0  0  0  0  0  0  0  0
  1  2  1  0
  2  3  1  0
  3  4  2  0
  4  5  1  0
  5  6  1  0
  6  7  1  0
  6  8  2  0
  6  9  2  0
  5 10  2  0
 10 11  1  0
 11 12  1  0
 12 13  2  0
 13 14  1  0
 14 15  2  0
 15 16  1  0
 16 17  2  0
 10 18  1  0
 18  2  2  0
 17 12  1  0
  1 19  1  0
  1 20  1  0
  1 21  1  0
  3 22  1  0
  4 23  1  0
 11 24  1  0
 11 25  1  0
 13 26  1  0
 14 27  1  0
 15 28  1  0
 16 29  1  0
 17 30  1  0
 18 31  1  0
M  RAD  1   7   3
M  END
$$$$
