
     RDKit          3D

 31 32  0  0  0  0  0  0  0  0999 V2000
   -3.7342   -1.2855    1.6054 C   0  0  0  0  0  0  0  0  0  0  0  0
   -2.8012   -0.3564    0.8860 C   0  0  0  0  0  0  0  0  0  0  0  0
   -2.8509    1.0188    1.1295 C   0  0  0  0  0  0  0  0  0  0  0  0
   -1.9561    1.8789    0.4942 C   0  0  0  0  0  0  0  0  0  0  0  0
   -0.9866    1.3856   -0.3944 C   0  0  0  0  0  0  0  0  0  0  0  0
    0.1283    2.5469   -1.1411 S   0  0  0  0  0  0  0  0  0  0  0  0
   -0.4278    4.1632   -0.8832 N   0  0  0  0  0  1  0  0  0  0  0  0
    1.4906    2.4082   -0.5240 O   0  0  0  0  0  0  0  0  0  0  0  0
    0.2154    2.3205   -2.6235 O   0  0  0  0  0  0  0  0  0  0  0  0
   -0.9146   -0.0147   -0.6321 C   0  0  0  0  0  0  0  0  0  0  0  0
    0.1230   -0.6461   -1.5396 C   0  0  0  0  0  0  0  0  0  0  0  0
    1.4901   -0.6880   -0.9030 C   0  0  0  0  0  0  0  0  0  0  0  0
    2.6119   -0.2146   -1.6062 C   0  0  0  0  0  0  0  0  0  0  0  0
    3.8847   -0.2788   -1.0310 C   0  0  0  0  0  0  0  0  0  0  0  0
    4.0516   -0.8307    0.2416 C   0  0  0  0  0  0  0  0  0  0  0  0
    2.9468   -1.3262    0.9385 C   0  0  0  0  0  0  0  0  0  0  0  0
    1.6721   -1.2640    0.3676 C   0  0  0  0  0  0  0  0  0  0  0  0
   -1.8240   -0.8673    0.0233 C   0  0  0  0  0  0  0  0  0  0  0  0
   -3.2634   -1.6201    2.5533 H   0  0  0  0  0  0  0  0  0  0  0  0
   -4.6943   -0.7770    1.8374 H   0  0  0  0  0  0  0  0  0  0  0  0
   -3.9603   -2.1748    0.9792 H   0  0  0  0  0  0  0  0  0  0  0  0
   -3.5819    1.4276    1.8164 H   0  0  0  0  0  0  0  0  0  0  0  0
   -2.0204    2.9366    0.7105 H   0  0  0  0  0  0  0  0  0  0  0  0
    0.1439   -0.1153   -2.5116 H   0  0  0  0  0  0  0  0  0  0  0  0
   -0.1639   -1.6899   -1.7931 H   0  0  0  0  0  0  0  0  0  0  0  0
    2.5015    0.2119   -2.5954 H   0  0  0  0  0  0  0  0  0  0  0  0
    4.7425    0.0973   -1.5734 H   0  0  0  0  0  0  0  0  0  0  0  0
    5.0378   -0.8804    0.6848 H   0  0  0  0  0  0  0  0  0  0  0  0
    3.0787   -1.7629    1.9200 H   0  0  0  0  0  0  0  0  0  0  0  0
    0.8292   -1.6644    0.9162 H   0  0  0  0  0  0  0  0  0  0  0  0
   -1.7688   -1.9384   -0.1334 H   0  0  0  0  0  0  0  0  0  0  0  0
  1  2  1  0
  2  3  1  0
  3  4  2  0
  4  5  1  0
  5  6  1  0
  6  7  1  0
  6  8  2  0
  6  9  2  0
  5 10  2  0
 10 11  1  0
 11 12  1  0
 12 13  2  0
 13 14  1  0
 14 15  2  0
 15 16  1  0
 16 17  2  0
 10 18  1  0
 18  2  2  0
 17 12  1  0
  1 19  1  0
  1 20  1  0
  1 21  1  0
  3 22  1  0
  4 23  1  0
 11 24  1  0
 11 25  1  0
 13 26  1  0
 14 27  1  0
 15 28  1  0
 16 29  1  0
 17 30  1  0
 18 31  1  0
M  RAD  1   7   3
M  END
$$$$
