
     RDKit          3D

 31 32  0  0  0  0  0  0  0  0999 V2000
   -3.2015    2.5647    1.2815 C   0  0  0  0  0  0  0  0  0  0  0  0
   -2.5763    1.4017    0.5691 C   0  0  0  0  0  0  0  0  0  0  0  0
   -3.0091    1.0450   -0.7109 C   0  0  0  0  0  0  0  0  0  0  0  0
   -2.4001   -0.0084   -1.3918 C   0  0  0  0  0  0  0  0  0  0  0  0
   -1.3405   -0.7264   -0.8133 C   0  0  0  0  0  0  0  0  0  0  0  0
   -0.6065   -2.0366   -1.7587 S   0  0  0  0  0  0  0  0  0  0  0  0
   -1.5930   -2.4143   -3.1270 N   0  0  0  0  0  1  0  0  0  0  0  0
    0.7462   -1.6081   -2.2510 O   0  0  0  0  0  0  0  0  0  0  0  0
   -0.4752   -3.2810   -0.9277 O   0  0  0  0  0  0  0  0  0  0  0  0
   -0.8791   -0.3569    0.4802 C   0  0  0  0  0  0  0  0  0  0  0  0
    0.2845   -1.0426    1.1692 C   0  0  0  0  0  0  0  0  0  0  0  0
    1.6148   -0.6381    0.5836 C   0  0  0  0  0  0  0  0  0  0  0  0
    2.5499   -1.6193    0.2095 C   0  0  0  0  0  0  0  0  0  0  0  0
    3.7953   -1.2478   -0.3062 C   0  0  0  0  0  0  0  0  0  0  0  0
    4.1248    0.1035   -0.4369 C   0  0  0  0  0  0  0  0  0  0  0  0
    3.2122    1.0861   -0.0452 C   0  0  0  0  0  0  0  0  0  0  0  0
    1.9655    0.7196    0.4708 C   0  0  0  0  0  0  0  0  0  0  0  0
   -1.5041    0.7133    1.1493 C   0  0  0  0  0  0  0  0  0  0  0  0
   -2.6453    3.4924    1.0323 H   0  0  0  0  0  0  0  0  0  0  0  0
   -3.1746    2.4101    2.3812 H   0  0  0  0  0  0  0  0  0  0  0  0
   -4.2635    2.6867    0.9789 H   0  0  0  0  0  0  0  0  0  0  0  0
   -3.8182    1.5859   -1.1864 H   0  0  0  0  0  0  0  0  0  0  0  0
   -2.7577   -0.2533   -2.3826 H   0  0  0  0  0  0  0  0  0  0  0  0
    0.1443   -2.1409    1.1381 H   0  0  0  0  0  0  0  0  0  0  0  0
    0.3009   -0.7898    2.2516 H   0  0  0  0  0  0  0  0  0  0  0  0
    2.3130   -2.6713    0.3085 H   0  0  0  0  0  0  0  0  0  0  0  0
    4.5062   -2.0083   -0.6023 H   0  0  0  0  0  0  0  0  0  0  0  0
    5.0897    0.3891   -0.8353 H   0  0  0  0  0  0  0  0  0  0  0  0
    3.4724    2.1327   -0.1373 H   0  0  0  0  0  0  0  0  0  0  0  0
    1.2757    1.4939    0.7813 H   0  0  0  0  0  0  0  0  0  0  0  0
   -1.1508    1.0184    2.1275 H   0  0  0  0  0  0  0  0  0  0  0  0
  1  2  1  0
  2  3  1  0
  3  4  2  0
  4  5  1  0
  5  6  1  0
  6  7  1  0
  6  8  2  0
  6  9  2  0
  5 10  2  0
 10 11  1  0
 11 12  1  0
 12 13  2  0
 13 14  1  0
 14 15  2  0
 15 16  1  0
 16 17  2  0
 10 18  1  0
 18  2  2  0
 17 12  1  0
  1 19  1  0
  1 20  1  0
  1 21  1  0
  3 22  1  0
  4 23  1  0
 11 24  1  0
 11 25  1  0
 13 26  1  0
 14 27  1  0
 15 28  1  0
 16 29  1  0
 17 30  1  0
 18 31  1  0
M  RAD  1   7   3
M  END
$$$$
