
     RDKit          3D

 31 32  0  0  0  0  0  0  0  0999 V2000
   -3.6946    1.2801    1.7837 C   0  0  0  0  0  0  0  0  0  0  0  0
   -2.8210    0.4947    0.8503 C   0  0  0  0  0  0  0  0  0  0  0  0
   -3.0932   -0.8525    0.5977 C   0  0  0  0  0  0  0  0  0  0  0  0
   -2.2577   -1.5953   -0.2356 C   0  0  0  0  0  0  0  0  0  0  0  0
   -1.1272   -1.0120   -0.8313 C   0  0  0  0  0  0  0  0  0  0  0  0
   -0.1043   -2.0354   -1.8587 S   0  0  0  0  0  0  0  0  0  0  0  0
   -0.9098   -3.5228   -2.2151 N   0  0  0  0  0  1  0  0  0  0  0  0
    0.1941   -1.3493   -3.1612 O   0  0  0  0  0  0  0  0  0  0  0  0
    1.1783   -2.3486   -1.1427 O   0  0  0  0  0  0  0  0  0  0  0  0
   -0.8303    0.3527   -0.5631 C   0  0  0  0  0  0  0  0  0  0  0  0
    0.3888    1.0584   -1.1241 C   0  0  0  0  0  0  0  0  0  0  0  0
    1.6602    0.6482   -0.4231 C   0  0  0  0  0  0  0  0  0  0  0  0
    2.7814    0.2470   -1.1707 C   0  0  0  0  0  0  0  0  0  0  0  0
    3.9708   -0.1058   -0.5257 C   0  0  0  0  0  0  0  0  0  0  0  0
    4.0572   -0.0449    0.8674 C   0  0  0  0  0  0  0  0  0  0  0  0
    2.9565    0.3759    1.6178 C   0  0  0  0  0  0  0  0  0  0  0  0
    1.7650    0.7294    0.9775 C   0  0  0  0  0  0  0  0  0  0  0  0
   -1.6837    1.0843    0.2854 C   0  0  0  0  0  0  0  0  0  0  0  0
   -4.7378    0.8989    1.7605 H   0  0  0  0  0  0  0  0  0  0  0  0
   -3.7152    2.3516    1.4914 H   0  0  0  0  0  0  0  0  0  0  0  0
   -3.3006    1.1942    2.8178 H   0  0  0  0  0  0  0  0  0  0  0  0
   -3.9528   -1.3321    1.0499 H   0  0  0  0  0  0  0  0  0  0  0  0
   -2.4962   -2.6365   -0.4044 H   0  0  0  0  0  0  0  0  0  0  0  0
    0.2848    2.1601   -1.0182 H   0  0  0  0  0  0  0  0  0  0  0  0
    0.4531    0.8847   -2.2162 H   0  0  0  0  0  0  0  0  0  0  0  0
    2.7336    0.1987   -2.2514 H   0  0  0  0  0  0  0  0  0  0  0  0
    4.8267   -0.4240   -1.1067 H   0  0  0  0  0  0  0  0  0  0  0  0
    4.9791   -0.3173    1.3648 H   0  0  0  0  0  0  0  0  0  0  0  0
    3.0278    0.4325    2.6963 H   0  0  0  0  0  0  0  0  0  0  0  0
    0.9263    1.0655    1.5736 H   0  0  0  0  0  0  0  0  0  0  0  0
   -1.4595    2.1198    0.5140 H   0  0  0  0  0  0  0  0  0  0  0  0
  1  2  1  0
  2  3  1  0
  3  4  2  0
  4  5  1  0
  5  6  1  0
  6  7  1  0
  6  8  2  0
  6  9  2  0
  5 10  2  0
 10 11  1  0
 11 12  1  0
 12 13  2  0
 13 14  1  0
 14 15  2  0
 15 16  1  0
 16 17  2  0
 10 18  1  0
 18  2  2  0
 17 12  1  0
  1 19  1  0
  1 20  1  0
  1 21  1  0
  3 22  1  0
  4 23  1  0
 11 24  1  0
 11 25  1  0
 13 26  1  0
 14 27  1  0
 15 28  1  0
 16 29  1  0
 17 30  1  0
 18 31  1  0
M  RAD  1   7   3
M  END
$$$$
