
     RDKit          3D

 31 32  0  0  0  0  0  0  0  0999 V2000
   -3.7296    2.1323   -0.1679 C   0  0  0  0  0  0  0  0  0  0  0  0
   -2.8397    0.9248   -0.1322 C   0  0  0  0  0  0  0  0  0  0  0  0
   -3.1816   -0.1786    0.6542 C   0  0  0  0  0  0  0  0  0  0  0  0
   -2.3347   -1.2842    0.7221 C   0  0  0  0  0  0  0  0  0  0  0  0
   -1.1235   -1.3114    0.0114 C   0  0  0  0  0  0  0  0  0  0  0  0
   -0.0937   -2.7476    0.1732 S   0  0  0  0  0  0  0  0  0  0  0  0
   -0.9673   -4.0291    0.9367 N   0  0  0  0  0  1  0  0  0  0  0  0
    0.3533   -3.2343   -1.1758 O   0  0  0  0  0  0  0  0  0  0  0  0
    1.1036   -2.4185    1.0182 O   0  0  0  0  0  0  0  0  0  0  0  0
   -0.7570   -0.1844   -0.7747 C   0  0  0  0  0  0  0  0  0  0  0  0
    0.5479   -0.1019   -1.5423 C   0  0  0  0  0  0  0  0  0  0  0  0
    1.7287    0.1501   -0.6377 C   0  0  0  0  0  0  0  0  0  0  0  0
    1.7269    1.2348    0.2583 C   0  0  0  0  0  0  0  0  0  0  0  0
    2.8369    1.4799    1.0723 C   0  0  0  0  0  0  0  0  0  0  0  0
    3.9628    0.6571    0.9882 C   0  0  0  0  0  0  0  0  0  0  0  0
    3.9837   -0.4081    0.0844 C   0  0  0  0  0  0  0  0  0  0  0  0
    2.8762   -0.6570   -0.7320 C   0  0  0  0  0  0  0  0  0  0  0  0
   -1.6237    0.9245   -0.8261 C   0  0  0  0  0  0  0  0  0  0  0  0
   -3.4260    2.8381    0.6332 H   0  0  0  0  0  0  0  0  0  0  0  0
   -4.7911    1.8434   -0.0132 H   0  0  0  0  0  0  0  0  0  0  0  0
   -3.6540    2.6449   -1.1505 H   0  0  0  0  0  0  0  0  0  0  0  0
   -4.1050   -0.1829    1.2204 H   0  0  0  0  0  0  0  0  0  0  0  0
   -2.6291   -2.1180    1.3448 H   0  0  0  0  0  0  0  0  0  0  0  0
    0.5109    0.7225   -2.2872 H   0  0  0  0  0  0  0  0  0  0  0  0
    0.6872   -1.0208   -2.1450 H   0  0  0  0  0  0  0  0  0  0  0  0
    0.8681    1.8902    0.3274 H   0  0  0  0  0  0  0  0  0  0  0  0
    2.8257    2.3110    1.7655 H   0  0  0  0  0  0  0  0  0  0  0  0
    4.8215    0.8488    1.6185 H   0  0  0  0  0  0  0  0  0  0  0  0
    4.8597   -1.0399    0.0142 H   0  0  0  0  0  0  0  0  0  0  0  0
    2.9114   -1.4838   -1.4304 H   0  0  0  0  0  0  0  0  0  0  0  0
   -1.3487    1.7982   -1.4058 H   0  0  0  0  0  0  0  0  0  0  0  0
  1  2  1  0
  2  3  1  0
  3  4  2  0
  4  5  1  0
  5  6  1  0
  6  7  1  0
  6  8  2  0
  6  9  2  0
  5 10  2  0
 10 11  1  0
 11 12  1  0
 12 13  2  0
 13 14  1  0
 14 15  2  0
 15 16  1  0
 16 17  2  0
 10 18  1  0
 18  2  2  0
 17 12  1  0
  1 19  1  0
  1 20  1  0
  1 21  1  0
  3 22  1  0
  4 23  1  0
 11 24  1  0
 11 25  1  0
 13 26  1  0
 14 27  1  0
 15 28  1  0
 16 29  1  0
 17 30  1  0
 18 31  1  0
M  RAD  1   7   3
M  END
$$$$
