
     RDKit          3D

 31 32  0  0  0  0  0  0  0  0999 V2000
   -2.1257   -3.0810    0.4812 C   0  0  0  0  0  0  0  0  0  0  0  0
   -2.0100   -1.6501    0.0452 C   0  0  0  0  0  0  0  0  0  0  0  0
   -3.1010   -0.7853    0.1695 C   0  0  0  0  0  0  0  0  0  0  0  0
   -2.9869    0.5509   -0.2129 C   0  0  0  0  0  0  0  0  0  0  0  0
   -1.7743    1.0593   -0.7072 C   0  0  0  0  0  0  0  0  0  0  0  0
   -1.7281    2.7526   -1.2322 S   0  0  0  0  0  0  0  0  0  0  0  0
   -0.6287    3.6484   -0.2462 N   0  0  0  0  0  1  0  0  0  0  0  0
   -3.0914    3.3745   -1.1123 O   0  0  0  0  0  0  0  0  0  0  0  0
   -1.2969    2.8240   -2.6701 O   0  0  0  0  0  0  0  0  0  0  0  0
   -0.6450    0.1996   -0.7909 C   0  0  0  0  0  0  0  0  0  0  0  0
    0.7145    0.6593   -1.2811 C   0  0  0  0  0  0  0  0  0  0  0  0
    1.7773    0.4313   -0.2348 C   0  0  0  0  0  0  0  0  0  0  0  0
    1.7825    1.1930    0.9461 C   0  0  0  0  0  0  0  0  0  0  0  0
    2.7581    0.9730    1.9231 C   0  0  0  0  0  0  0  0  0  0  0  0
    3.7334   -0.0089    1.7306 C   0  0  0  0  0  0  0  0  0  0  0  0
    3.7337   -0.7738    0.5611 C   0  0  0  0  0  0  0  0  0  0  0  0
    2.7599   -0.5572   -0.4187 C   0  0  0  0  0  0  0  0  0  0  0  0
   -0.7882   -1.1528   -0.4238 C   0  0  0  0  0  0  0  0  0  0  0  0
   -3.1674   -3.4467    0.3585 H   0  0  0  0  0  0  0  0  0  0  0  0
   -1.8356   -3.1657    1.5493 H   0  0  0  0  0  0  0  0  0  0  0  0
   -1.4609   -3.7303   -0.1275 H   0  0  0  0  0  0  0  0  0  0  0  0
   -4.0466   -1.1476    0.5540 H   0  0  0  0  0  0  0  0  0  0  0  0
   -3.8571    1.1876   -0.1236 H   0  0  0  0  0  0  0  0  0  0  0  0
    0.7361    1.7297   -1.5556 H   0  0  0  0  0  0  0  0  0  0  0  0
    0.9567    0.1023   -2.2123 H   0  0  0  0  0  0  0  0  0  0  0  0
    1.0285    1.9507    1.1126 H   0  0  0  0  0  0  0  0  0  0  0  0
    2.7565    1.5624    2.8309 H   0  0  0  0  0  0  0  0  0  0  0  0
    4.4874   -0.1786    2.4883 H   0  0  0  0  0  0  0  0  0  0  0  0
    4.4878   -1.5362    0.4144 H   0  0  0  0  0  0  0  0  0  0  0  0
    2.7706   -1.1621   -1.3168 H   0  0  0  0  0  0  0  0  0  0  0  0
    0.0607   -1.8225   -0.4988 H   0  0  0  0  0  0  0  0  0  0  0  0
  1  2  1  0
  2  3  1  0
  3  4  2  0
  4  5  1  0
  5  6  1  0
  6  7  1  0
  6  8  2  0
  6  9  2  0
  5 10  2  0
 10 11  1  0
 11 12  1  0
 12 13  2  0
 13 14  1  0
 14 15  2  0
 15 16  1  0
 16 17  2  0
 10 18  1  0
 18  2  2  0
 17 12  1  0
  1 19  1  0
  1 20  1  0
  1 21  1  0
  3 22  1  0
  4 23  1  0
 11 24  1  0
 11 25  1  0
 13 26  1  0
 14 27  1  0
 15 28  1  0
 16 29  1  0
 17 30  1  0
 18 31  1  0
M  RAD  1   7   3
M  END
$$$$
