
     RDKit          3D

 31 32  0  0  0  0  0  0  0  0999 V2000
   -2.3700    2.0832   -2.0701 C   0  0  0  0  0  0  0  0  0  0  0  0
   -2.1436    0.9191   -1.1512 C   0  0  0  0  0  0  0  0  0  0  0  0
   -3.1510    0.5074   -0.2742 C   0  0  0  0  0  0  0  0  0  0  0  0
   -2.9328   -0.5591    0.5974 C   0  0  0  0  0  0  0  0  0  0  0  0
   -1.6959   -1.2244    0.6286 C   0  0  0  0  0  0  0  0  0  0  0  0
   -1.5185   -2.6116    1.7190 S   0  0  0  0  0  0  0  0  0  0  0  0
   -0.3162   -2.2763    2.9130 N   0  0  0  0  0  1  0  0  0  0  0  0
   -2.8183   -2.8966    2.4183 O   0  0  0  0  0  0  0  0  0  0  0  0
   -1.1262   -3.8282    0.9288 O   0  0  0  0  0  0  0  0  0  0  0  0
   -0.6487   -0.7810   -0.2247 C   0  0  0  0  0  0  0  0  0  0  0  0
    0.7302   -1.4119   -0.2442 C   0  0  0  0  0  0  0  0  0  0  0  0
    1.8002   -0.3939    0.0641 C   0  0  0  0  0  0  0  0  0  0  0  0
    2.6871    0.0358   -0.9384 C   0  0  0  0  0  0  0  0  0  0  0  0
    3.6674    0.9904   -0.6503 C   0  0  0  0  0  0  0  0  0  0  0  0
    3.7689    1.5243    0.6370 C   0  0  0  0  0  0  0  0  0  0  0  0
    2.8889    1.1057    1.6385 C   0  0  0  0  0  0  0  0  0  0  0  0
    1.9071    0.1514    1.3549 C   0  0  0  0  0  0  0  0  0  0  0  0
   -0.8978    0.2812   -1.1156 C   0  0  0  0  0  0  0  0  0  0  0  0
   -3.4429    2.1629   -2.3472 H   0  0  0  0  0  0  0  0  0  0  0  0
   -1.7829    1.9632   -3.0055 H   0  0  0  0  0  0  0  0  0  0  0  0
   -2.0565    3.0197   -1.5633 H   0  0  0  0  0  0  0  0  0  0  0  0
   -4.1125    1.0061   -0.2710 H   0  0  0  0  0  0  0  0  0  0  0  0
   -3.7413   -0.8657    1.2477 H   0  0  0  0  0  0  0  0  0  0  0  0
    0.8950   -1.8605   -1.2480 H   0  0  0  0  0  0  0  0  0  0  0  0
    0.8366   -2.2416    0.4781 H   0  0  0  0  0  0  0  0  0  0  0  0
    2.6182   -0.3641   -1.9424 H   0  0  0  0  0  0  0  0  0  0  0  0
    4.3477    1.3176   -1.4260 H   0  0  0  0  0  0  0  0  0  0  0  0
    4.5277    2.2637    0.8579 H   0  0  0  0  0  0  0  0  0  0  0  0
    2.9658    1.5225    2.6344 H   0  0  0  0  0  0  0  0  0  0  0  0
    1.2272   -0.1569    2.1378 H   0  0  0  0  0  0  0  0  0  0  0  0
   -0.1130    0.6177   -1.7831 H   0  0  0  0  0  0  0  0  0  0  0  0
  1  2  1  0
  2  3  1  0
  3  4  2  0
  4  5  1  0
  5  6  1  0
  6  7  1  0
  6  8  2  0
  6  9  2  0
  5 10  2  0
 10 11  1  0
 11 12  1  0
 12 13  2  0
 13 14  1  0
 14 15  2  0
 15 16  1  0
 16 17  2  0
 10 18  1  0
 18  2  2  0
 17 12  1  0
  1 19  1  0
  1 20  1  0
  1 21  1  0
  3 22  1  0
  4 23  1  0
 11 24  1  0
 11 25  1  0
 13 26  1  0
 14 27  1  0
 15 28  1  0
 16 29  1  0
 17 30  1  0
 18 31  1  0
M  RAD  1   7   3
M  END
$$$$
