
     RDKit          3D

 31 32  0  0  0  0  0  0  0  0999 V2000
   -3.1125    2.5957   -1.4300 C   0  0  0  0  0  0  0  0  0  0  0  0
   -2.5333    1.3472   -0.8325 C   0  0  0  0  0  0  0  0  0  0  0  0
   -3.1761    0.7139    0.2346 C   0  0  0  0  0  0  0  0  0  0  0  0
   -2.6170   -0.4219    0.8191 C   0  0  0  0  0  0  0  0  0  0  0  0
   -1.3999   -0.9484    0.3560 C   0  0  0  0  0  0  0  0  0  0  0  0
   -0.7470   -2.3824    1.1724 S   0  0  0  0  0  0  0  0  0  0  0  0
   -1.9454   -3.0841    2.2019 N   0  0  0  0  0  1  0  0  0  0  0  0
   -0.3350   -3.4220    0.1695 O   0  0  0  0  0  0  0  0  0  0  0  0
    0.4335   -1.9911    2.0144 O   0  0  0  0  0  0  0  0  0  0  0  0
   -0.7279   -0.2982   -0.7155 C   0  0  0  0  0  0  0  0  0  0  0  0
    0.6095   -0.7650   -1.2562 C   0  0  0  0  0  0  0  0  0  0  0  0
    1.7520   -0.4175   -0.3342 C   0  0  0  0  0  0  0  0  0  0  0  0
    1.9421    0.9056    0.1047 C   0  0  0  0  0  0  0  0  0  0  0  0
    3.0204    1.2258    0.9350 C   0  0  0  0  0  0  0  0  0  0  0  0
    3.9264    0.2346    1.3205 C   0  0  0  0  0  0  0  0  0  0  0  0
    3.7599   -1.0774    0.8702 C   0  0  0  0  0  0  0  0  0  0  0  0
    2.6832   -1.4024    0.0395 C   0  0  0  0  0  0  0  0  0  0  0  0
   -1.3065    0.8506   -1.2890 C   0  0  0  0  0  0  0  0  0  0  0  0
   -2.7080    3.4816   -0.8974 H   0  0  0  0  0  0  0  0  0  0  0  0
   -2.8527    2.6705   -2.5075 H   0  0  0  0  0  0  0  0  0  0  0  0
   -4.2201    2.5958   -1.3442 H   0  0  0  0  0  0  0  0  0  0  0  0
   -4.1114    1.1019    0.6192 H   0  0  0  0  0  0  0  0  0  0  0  0
   -3.1395   -0.8828    1.6463 H   0  0  0  0  0  0  0  0  0  0  0  0
    0.5714   -1.8525   -1.4633 H   0  0  0  0  0  0  0  0  0  0  0  0
    0.8166   -0.2961   -2.2426 H   0  0  0  0  0  0  0  0  0  0  0  0
    1.2572    1.6886   -0.1946 H   0  0  0  0  0  0  0  0  0  0  0  0
    3.1562    2.2439    1.2761 H   0  0  0  0  0  0  0  0  0  0  0  0
    4.7611    0.4845    1.9626 H   0  0  0  0  0  0  0  0  0  0  0  0
    4.4670   -1.8428    1.1627 H   0  0  0  0  0  0  0  0  0  0  0  0
    2.5722   -2.4233   -0.3042 H   0  0  0  0  0  0  0  0  0  0  0  0
   -0.7964    1.3677   -2.0936 H   0  0  0  0  0  0  0  0  0  0  0  0
  1  2  1  0
  2  3  1  0
  3  4  2  0
  4  5  1  0
  5  6  1  0
  6  7  1  0
  6  8  2  0
  6  9  2  0
  5 10  2  0
 10 11  1  0
 11 12  1  0
 12 13  2  0
 13 14  1  0
 14 15  2  0
 15 16  1  0
 16 17  2  0
 10 18  1  0
 18  2  2  0
 17 12  1  0
  1 19  1  0
  1 20  1  0
  1 21  1  0
  3 22  1  0
  4 23  1  0
 11 24  1  0
 11 25  1  0
 13 26  1  0
 14 27  1  0
 15 28  1  0
 16 29  1  0
 17 30  1  0
 18 31  1  0
M  RAD  1   7   3
M  END
$$$$
