
     RDKit          3D

 31 32  0  0  0  0  0  0  0  0999 V2000
    3.6006   -1.7719    1.5383 C   0  0  0  0  0  0  0  0  0  0  0  0
    2.7701   -0.9420    0.6041 C   0  0  0  0  0  0  0  0  0  0  0  0
    3.2481    0.2863    0.1398 C   0  0  0  0  0  0  0  0  0  0  0  0
    2.4602    1.0787   -0.6941 C   0  0  0  0  0  0  0  0  0  0  0  0
    1.1739    0.6661   -1.0790 C   0  0  0  0  0  0  0  0  0  0  0  0
    0.2290    1.7463   -2.1229 S   0  0  0  0  0  0  0  0  0  0  0  0
    1.2386    2.9935   -2.7657 N   0  0  0  0  0  1  0  0  0  0  0  0
   -0.3582    0.9872   -3.2785 O   0  0  0  0  0  0  0  0  0  0  0  0
   -0.8694    2.3876   -1.3242 O   0  0  0  0  0  0  0  0  0  0  0  0
    0.6706   -0.5726   -0.5943 C   0  0  0  0  0  0  0  0  0  0  0  0
   -0.7199   -1.0828   -0.9187 C   0  0  0  0  0  0  0  0  0  0  0  0
   -1.7916   -0.3510   -0.1494 C   0  0  0  0  0  0  0  0  0  0  0  0
   -1.7244   -0.2478    1.2520 C   0  0  0  0  0  0  0  0  0  0  0  0
   -2.7367    0.4061    1.9610 C   0  0  0  0  0  0  0  0  0  0  0  0
   -3.8310    0.9470    1.2816 C   0  0  0  0  0  0  0  0  0  0  0  0
   -3.9188    0.8285   -0.1077 C   0  0  0  0  0  0  0  0  0  0  0  0
   -2.9091    0.1753   -0.8211 C   0  0  0  0  0  0  0  0  0  0  0  0
    1.4800   -1.3559    0.2510 C   0  0  0  0  0  0  0  0  0  0  0  0
    4.6836   -1.6100    1.3512 H   0  0  0  0  0  0  0  0  0  0  0  0
    3.3865   -2.8527    1.3965 H   0  0  0  0  0  0  0  0  0  0  0  0
    3.3683   -1.4911    2.5868 H   0  0  0  0  0  0  0  0  0  0  0  0
    4.2327    0.6351    0.4268 H   0  0  0  0  0  0  0  0  0  0  0  0
    2.8605    2.0255   -1.0299 H   0  0  0  0  0  0  0  0  0  0  0  0
   -0.8944   -1.0270   -2.0112 H   0  0  0  0  0  0  0  0  0  0  0  0
   -0.8059   -2.1637   -0.6731 H   0  0  0  0  0  0  0  0  0  0  0  0
   -0.8903   -0.6722    1.7959 H   0  0  0  0  0  0  0  0  0  0  0  0
   -2.6747    0.4895    3.0384 H   0  0  0  0  0  0  0  0  0  0  0  0
   -4.6140    1.4521    1.8321 H   0  0  0  0  0  0  0  0  0  0  0  0
   -4.7710    1.2408   -0.6322 H   0  0  0  0  0  0  0  0  0  0  0  0
   -2.9958    0.0882   -1.8970 H   0  0  0  0  0  0  0  0  0  0  0  0
    1.1026   -2.2931    0.6434 H   0  0  0  0  0  0  0  0  0  0  0  0
  1  2  1  0
  2  3  1  0
  3  4  2  0
  4  5  1  0
  5  6  1  0
  6  7  1  0
  6  8  2  0
  6  9  2  0
  5 10  2  0
 10 11  1  0
 11 12  1  0
 12 13  2  0
 13 14  1  0
 14 15  2  0
 15 16  1  0
 16 17  2  0
 10 18  1  0
 18  2  2  0
 17 12  1  0
  1 19  1  0
  1 20  1  0
  1 21  1  0
  3 22  1  0
  4 23  1  0
 11 24  1  0
 11 25  1  0
 13 26  1  0
 14 27  1  0
 15 28  1  0
 16 29  1  0
 17 30  1  0
 18 31  1  0
M  RAD  1   7   3
M  END
$$$$
