
     RDKit          3D

 31 32  0  0  0  0  0  0  0  0999 V2000
   -2.5083    2.3699   -1.5279 C   0  0  0  0  0  0  0  0  0  0  0  0
   -2.2239    1.1030   -0.7761 C   0  0  0  0  0  0  0  0  0  0  0  0
   -3.1379    0.6223    0.1658 C   0  0  0  0  0  0  0  0  0  0  0  0
   -2.8632   -0.5419    0.8824 C   0  0  0  0  0  0  0  0  0  0  0  0
   -1.6596   -1.2405    0.6910 C   0  0  0  0  0  0  0  0  0  0  0  0
   -1.4130   -2.7470    1.5933 S   0  0  0  0  0  0  0  0  0  0  0  0
   -0.0666   -2.5831    2.6628 N   0  0  0  0  0  1  0  0  0  0  0  0
   -2.6327   -3.0735    2.4090 O   0  0  0  0  0  0  0  0  0  0  0  0
   -1.1661   -3.8763    0.6330 O   0  0  0  0  0  0  0  0  0  0  0  0
   -0.7020   -0.7322   -0.2289 C   0  0  0  0  0  0  0  0  0  0  0  0
    0.6381   -1.3946   -0.4839 C   0  0  0  0  0  0  0  0  0  0  0  0
    1.7777   -0.4483   -0.1974 C   0  0  0  0  0  0  0  0  0  0  0  0
    2.0571   -0.0565    1.1229 C   0  0  0  0  0  0  0  0  0  0  0  0
    3.1036    0.8318    1.3887 C   0  0  0  0  0  0  0  0  0  0  0  0
    3.8769    1.3370    0.3402 C   0  0  0  0  0  0  0  0  0  0  0  0
    3.6038    0.9560   -0.9762 C   0  0  0  0  0  0  0  0  0  0  0  0
    2.5581    0.0678   -1.2466 C   0  0  0  0  0  0  0  0  0  0  0  0
   -1.0098    0.4310   -0.9614 C   0  0  0  0  0  0  0  0  0  0  0  0
   -2.0995    3.2336   -0.9631 H   0  0  0  0  0  0  0  0  0  0  0  0
   -2.0400    2.3407   -2.5348 H   0  0  0  0  0  0  0  0  0  0  0  0
   -3.6020    2.5102   -1.6629 H   0  0  0  0  0  0  0  0  0  0  0  0
   -4.0712    1.1439    0.3396 H   0  0  0  0  0  0  0  0  0  0  0  0
   -3.6020   -0.8980    1.5881 H   0  0  0  0  0  0  0  0  0  0  0  0
    0.7940   -2.3038    0.1250 H   0  0  0  0  0  0  0  0  0  0  0  0
    0.6658   -1.7306   -1.5433 H   0  0  0  0  0  0  0  0  0  0  0  0
    1.4613   -0.4328    1.9437 H   0  0  0  0  0  0  0  0  0  0  0  0
    3.3135    1.1304    2.4076 H   0  0  0  0  0  0  0  0  0  0  0  0
    4.6860    2.0253    0.5475 H   0  0  0  0  0  0  0  0  0  0  0  0
    4.2015    1.3503   -1.7878 H   0  0  0  0  0  0  0  0  0  0  0  0
    2.3559   -0.2133   -2.2726 H   0  0  0  0  0  0  0  0  0  0  0  0
   -0.2953    0.8192   -1.6780 H   0  0  0  0  0  0  0  0  0  0  0  0
  1  2  1  0
  2  3  1  0
  3  4  2  0
  4  5  1  0
  5  6  1  0
  6  7  1  0
  6  8  2  0
  6  9  2  0
  5 10  2  0
 10 11  1  0
 11 12  1  0
 12 13  2  0
 13 14  1  0
 14 15  2  0
 15 16  1  0
 16 17  2  0
 10 18  1  0
 18  2  2  0
 17 12  1  0
  1 19  1  0
  1 20  1  0
  1 21  1  0
  3 22  1  0
  4 23  1  0
 11 24  1  0
 11 25  1  0
 13 26  1  0
 14 27  1  0
 15 28  1  0
 16 29  1  0
 17 30  1  0
 18 31  1  0
M  RAD  1   7   3
M  END
$$$$
