
     RDKit          3D

 31 32  0  0  0  0  0  0  0  0999 V2000
   -2.4939    2.8325    0.0585 C   0  0  0  0  0  0  0  0  0  0  0  0
   -2.2185    1.3576    0.0630 C   0  0  0  0  0  0  0  0  0  0  0  0
   -3.1113    0.4723   -0.5474 C   0  0  0  0  0  0  0  0  0  0  0  0
   -2.8439   -0.8962   -0.5649 C   0  0  0  0  0  0  0  0  0  0  0  0
   -1.6679   -1.4094    0.0072 C   0  0  0  0  0  0  0  0  0  0  0  0
   -1.4316   -3.1669    0.0012 S   0  0  0  0  0  0  0  0  0  0  0  0
   -0.0437   -3.5745   -0.9427 N   0  0  0  0  0  1  0  0  0  0  0  0
   -2.6300   -3.8536   -0.5920 O   0  0  0  0  0  0  0  0  0  0  0  0
   -1.2510   -3.6570    1.4104 O   0  0  0  0  0  0  0  0  0  0  0  0
   -0.7301   -0.5116    0.5866 C   0  0  0  0  0  0  0  0  0  0  0  0
    0.5809   -0.9624    1.2013 C   0  0  0  0  0  0  0  0  0  0  0  0
    1.7562   -0.2978    0.5279 C   0  0  0  0  0  0  0  0  0  0  0  0
    2.5127    0.6732    1.2069 C   0  0  0  0  0  0  0  0  0  0  0  0
    3.5919    1.2963    0.5725 C   0  0  0  0  0  0  0  0  0  0  0  0
    3.9226    0.9577   -0.7423 C   0  0  0  0  0  0  0  0  0  0  0  0
    3.1735   -0.0037   -1.4258 C   0  0  0  0  0  0  0  0  0  0  0  0
    2.0936   -0.6292   -0.7954 C   0  0  0  0  0  0  0  0  0  0  0  0
   -1.0310    0.8641    0.6168 C   0  0  0  0  0  0  0  0  0  0  0  0
   -2.0409    3.2895   -0.8460 H   0  0  0  0  0  0  0  0  0  0  0  0
   -3.5874    3.0285    0.0546 H   0  0  0  0  0  0  0  0  0  0  0  0
   -2.0630    3.3136    0.9623 H   0  0  0  0  0  0  0  0  0  0  0  0
   -4.0227    0.8400   -1.0027 H   0  0  0  0  0  0  0  0  0  0  0  0
   -3.5666   -1.5557   -1.0267 H   0  0  0  0  0  0  0  0  0  0  0  0
    0.7330   -2.0555    1.1426 H   0  0  0  0  0  0  0  0  0  0  0  0
    0.5612   -0.7167    2.2854 H   0  0  0  0  0  0  0  0  0  0  0  0
    2.2661    0.9508    2.2241 H   0  0  0  0  0  0  0  0  0  0  0  0
    4.1710    2.0433    1.0999 H   0  0  0  0  0  0  0  0  0  0  0  0
    4.7577    1.4416   -1.2320 H   0  0  0  0  0  0  0  0  0  0  0  0
    3.4280   -0.2626   -2.4454 H   0  0  0  0  0  0  0  0  0  0  0  0
    1.5173   -1.3653   -1.3397 H   0  0  0  0  0  0  0  0  0  0  0  0
   -0.3320    1.5571    1.0706 H   0  0  0  0  0  0  0  0  0  0  0  0
  1  2  1  0
  2  3  1  0
  3  4  2  0
  4  5  1  0
  5  6  1  0
  6  7  1  0
  6  8  2  0
  6  9  2  0
  5 10  2  0
 10 11  1  0
 11 12  1  0
 12 13  2  0
 13 14  1  0
 14 15  2  0
 15 16  1  0
 16 17  2  0
 10 18  1  0
 18  2  2  0
 17 12  1  0
  1 19  1  0
  1 20  1  0
  1 21  1  0
  3 22  1  0
  4 23  1  0
 11 24  1  0
 11 25  1  0
 13 26  1  0
 14 27  1  0
 15 28  1  0
 16 29  1  0
 17 30  1  0
 18 31  1  0
M  RAD  1   7   3
M  END
$$$$
