
     RDKit          3D

 31 32  0  0  0  0  0  0  0  0999 V2000
    2.5036    2.7801    0.4632 C   0  0  0  0  0  0  0  0  0  0  0  0
    2.2212    1.3198    0.2657 C   0  0  0  0  0  0  0  0  0  0  0  0
    3.1405    0.5090   -0.4059 C   0  0  0  0  0  0  0  0  0  0  0  0
    2.8679   -0.8430   -0.6113 C   0  0  0  0  0  0  0  0  0  0  0  0
    1.6612   -1.4113   -0.1704 C   0  0  0  0  0  0  0  0  0  0  0  0
    1.4172   -3.1510   -0.4124 S   0  0  0  0  0  0  0  0  0  0  0  0
    0.0786   -3.4196   -1.4704 N   0  0  0  0  0  1  0  0  0  0  0  0
    1.1608   -3.8140    0.9117 O   0  0  0  0  0  0  0  0  0  0  0  0
    2.6417   -3.7704   -1.0260 O   0  0  0  0  0  0  0  0  0  0  0  0
    0.6986   -0.5837    0.4698 C   0  0  0  0  0  0  0  0  0  0  0  0
   -0.6449   -1.0939    0.9541 C   0  0  0  0  0  0  0  0  0  0  0  0
   -1.7801   -0.3360    0.3115 C   0  0  0  0  0  0  0  0  0  0  0  0
   -2.0494   -0.4927   -1.0588 C   0  0  0  0  0  0  0  0  0  0  0  0
   -3.0918    0.2201   -1.6589 C   0  0  0  0  0  0  0  0  0  0  0  0
   -3.8711    1.0953   -0.8978 C   0  0  0  0  0  0  0  0  0  0  0  0
   -3.6081    1.2604    0.4646 C   0  0  0  0  0  0  0  0  0  0  0  0
   -2.5665    0.5496    1.0689 C   0  0  0  0  0  0  0  0  0  0  0  0
    1.0042    0.7735    0.6904 C   0  0  0  0  0  0  0  0  0  0  0  0
    3.5967    2.9626    0.5405 H   0  0  0  0  0  0  0  0  0  0  0  0
    2.0282    3.1474    1.3976 H   0  0  0  0  0  0  0  0  0  0  0  0
    2.1008    3.3533   -0.3977 H   0  0  0  0  0  0  0  0  0  0  0  0
    4.0763    0.9212   -0.7634 H   0  0  0  0  0  0  0  0  0  0  0  0
    3.6107   -1.4467   -1.1157 H   0  0  0  0  0  0  0  0  0  0  0  0
   -0.6807   -0.9882    2.0602 H   0  0  0  0  0  0  0  0  0  0  0  0
   -0.7988   -2.1690    0.7488 H   0  0  0  0  0  0  0  0  0  0  0  0
   -1.4489   -1.1602   -1.6623 H   0  0  0  0  0  0  0  0  0  0  0  0
   -3.2940    0.0956   -2.7149 H   0  0  0  0  0  0  0  0  0  0  0  0
   -4.6771    1.6470   -1.3641 H   0  0  0  0  0  0  0  0  0  0  0  0
   -4.2104    1.9409    1.0525 H   0  0  0  0  0  0  0  0  0  0  0  0
   -2.3721    0.6929    2.1245 H   0  0  0  0  0  0  0  0  0  0  0  0
    0.2857    1.4111    1.1924 H   0  0  0  0  0  0  0  0  0  0  0  0
  1  2  1  0
  2  3  1  0
  3  4  2  0
  4  5  1  0
  5  6  1  0
  6  7  1  0
  6  8  2  0
  6  9  2  0
  5 10  2  0
 10 11  1  0
 11 12  1  0
 12 13  2  0
 13 14  1  0
 14 15  2  0
 15 16  1  0
 16 17  2  0
 10 18  1  0
 18  2  2  0
 17 12  1  0
  1 19  1  0
  1 20  1  0
  1 21  1  0
  3 22  1  0
  4 23  1  0
 11 24  1  0
 11 25  1  0
 13 26  1  0
 14 27  1  0
 15 28  1  0
 16 29  1  0
 17 30  1  0
 18 31  1  0
M  RAD  1   7   3
M  END
$$$$
