
     RDKit          3D

 31 32  0  0  0  0  0  0  0  0999 V2000
   -3.2409    2.8223   -0.0301 C   0  0  0  0  0  0  0  0  0  0  0  0
   -2.6028    1.4662    0.0394 C   0  0  0  0  0  0  0  0  0  0  0  0
   -3.0870    0.5053    0.9310 C   0  0  0  0  0  0  0  0  0  0  0  0
   -2.4684   -0.7406    1.0276 C   0  0  0  0  0  0  0  0  0  0  0  0
   -1.3479   -1.0541    0.2407 C   0  0  0  0  0  0  0  0  0  0  0  0
   -0.6072   -2.6538    0.4440 S   0  0  0  0  0  0  0  0  0  0  0  0
   -1.6476   -3.6841    1.3629 N   0  0  0  0  0  1  0  0  0  0  0  0
   -0.3755   -3.3043   -0.8900 O   0  0  0  0  0  0  0  0  0  0  0  0
    0.6963   -2.5177    1.1774 O   0  0  0  0  0  0  0  0  0  0  0  0
   -0.8351   -0.0749   -0.6541 C   0  0  0  0  0  0  0  0  0  0  0  0
    0.3936   -0.3034   -1.5125 C   0  0  0  0  0  0  0  0  0  0  0  0
    1.6709   -0.2355   -0.7126 C   0  0  0  0  0  0  0  0  0  0  0  0
    2.6280   -1.2598   -0.8211 C   0  0  0  0  0  0  0  0  0  0  0  0
    3.8259   -1.1859   -0.1037 C   0  0  0  0  0  0  0  0  0  0  0  0
    4.0865   -0.0831    0.7134 C   0  0  0  0  0  0  0  0  0  0  0  0
    3.1527    0.9517    0.8090 C   0  0  0  0  0  0  0  0  0  0  0  0
    1.9534    0.8822    0.0938 C   0  0  0  0  0  0  0  0  0  0  0  0
   -1.4710    1.1792   -0.7332 C   0  0  0  0  0  0  0  0  0  0  0  0
   -4.3219    2.7617    0.2184 H   0  0  0  0  0  0  0  0  0  0  0  0
   -2.7413    3.5026    0.6908 H   0  0  0  0  0  0  0  0  0  0  0  0
   -3.1480    3.2463   -1.0527 H   0  0  0  0  0  0  0  0  0  0  0  0
   -3.9441    0.7213    1.5572 H   0  0  0  0  0  0  0  0  0  0  0  0
   -2.8672   -1.4577    1.7321 H   0  0  0  0  0  0  0  0  0  0  0  0
    0.4566    0.4629   -2.3155 H   0  0  0  0  0  0  0  0  0  0  0  0
    0.3018   -1.2679   -2.0496 H   0  0  0  0  0  0  0  0  0  0  0  0
    2.4446   -2.1196   -1.4534 H   0  0  0  0  0  0  0  0  0  0  0  0
    4.5536   -1.9831   -0.1834 H   0  0  0  0  0  0  0  0  0  0  0  0
    5.0148   -0.0271    1.2671 H   0  0  0  0  0  0  0  0  0  0  0  0
    3.3601    1.8105    1.4342 H   0  0  0  0  0  0  0  0  0  0  0  0
    1.2469    1.6989    0.1695 H   0  0  0  0  0  0  0  0  0  0  0  0
   -1.0799    1.9419   -1.3967 H   0  0  0  0  0  0  0  0  0  0  0  0
  1  2  1  0
  2  3  1  0
  3  4  2  0
  4  5  1  0
  5  6  1  0
  6  7  1  0
  6  8  2  0
  6  9  2  0
  5 10  2  0
 10 11  1  0
 11 12  1  0
 12 13  2  0
 13 14  1  0
 14 15  2  0
 15 16  1  0
 16 17  2  0
 10 18  1  0
 18  2  2  0
 17 12  1  0
  1 19  1  0
  1 20  1  0
  1 21  1  0
  3 22  1  0
  4 23  1  0
 11 24  1  0
 11 25  1  0
 13 26  1  0
 14 27  1  0
 15 28  1  0
 16 29  1  0
 17 30  1  0
 18 31  1  0
M  RAD  1   7   3
M  END
$$$$
