
     RDKit          3D

 31 32  0  0  0  0  0  0  0  0999 V2000
    2.4633    2.8376    0.2557 C   0  0  0  0  0  0  0  0  0  0  0  0
    2.2030    1.3670    0.1116 C   0  0  0  0  0  0  0  0  0  0  0  0
    3.1222    0.5507   -0.5535 C   0  0  0  0  0  0  0  0  0  0  0  0
    2.8696   -0.8118   -0.7092 C   0  0  0  0  0  0  0  0  0  0  0  0
    1.6830   -1.3861   -0.2237 C   0  0  0  0  0  0  0  0  0  0  0  0
    1.4651   -3.1368   -0.4040 S   0  0  0  0  0  0  0  0  0  0  0  0
    0.1093   -3.4629   -1.4232 N   0  0  0  0  0  1  0  0  0  0  0  0
    1.2491   -3.7605    0.9461 O   0  0  0  0  0  0  0  0  0  0  0  0
    2.6871   -3.7546   -1.0241 O   0  0  0  0  0  0  0  0  0  0  0  0
    0.7196   -0.5548    0.4105 C   0  0  0  0  0  0  0  0  0  0  0  0
   -0.6038   -1.0721    0.9403 C   0  0  0  0  0  0  0  0  0  0  0  0
   -1.7660   -0.3552    0.2987 C   0  0  0  0  0  0  0  0  0  0  0  0
   -2.5518    0.5408    1.0443 C   0  0  0  0  0  0  0  0  0  0  0  0
   -3.6187    1.2135    0.4404 C   0  0  0  0  0  0  0  0  0  0  0  0
   -3.9078    0.9995   -0.9099 C   0  0  0  0  0  0  0  0  0  0  0  0
   -3.1294    0.1135   -1.6593 C   0  0  0  0  0  0  0  0  0  0  0  0
   -2.0617   -0.5612   -1.0595 C   0  0  0  0  0  0  0  0  0  0  0  0
    1.0053    0.8139    0.5805 C   0  0  0  0  0  0  0  0  0  0  0  0
    2.0014    3.2270    1.1880 H   0  0  0  0  0  0  0  0  0  0  0  0
    2.0319    3.3754   -0.6142 H   0  0  0  0  0  0  0  0  0  0  0  0
    3.5543    3.0413    0.3031 H   0  0  0  0  0  0  0  0  0  0  0  0
    4.0425    0.9671   -0.9446 H   0  0  0  0  0  0  0  0  0  0  0  0
    3.6121   -1.4187   -1.2101 H   0  0  0  0  0  0  0  0  0  0  0  0
   -0.6179   -0.9309    2.0430 H   0  0  0  0  0  0  0  0  0  0  0  0
   -0.7428   -2.1558    0.7732 H   0  0  0  0  0  0  0  0  0  0  0  0
   -2.3374    0.7219    2.0902 H   0  0  0  0  0  0  0  0  0  0  0  0
   -4.2204    1.9023    1.0191 H   0  0  0  0  0  0  0  0  0  0  0  0
   -4.7334    1.5217   -1.3758 H   0  0  0  0  0  0  0  0  0  0  0  0
   -3.3518   -0.0489   -2.7060 H   0  0  0  0  0  0  0  0  0  0  0  0
   -1.4624   -1.2376   -1.6542 H   0  0  0  0  0  0  0  0  0  0  0  0
    0.2864    1.4551    1.0773 H   0  0  0  0  0  0  0  0  0  0  0  0
  1  2  1  0
  2  3  1  0
  3  4  2  0
  4  5  1  0
  5  6  1  0
  6  7  1  0
  6  8  2  0
  6  9  2  0
  5 10  2  0
 10 11  1  0
 11 12  1  0
 12 13  2  0
 13 14  1  0
 14 15  2  0
 15 16  1  0
 16 17  2  0
 10 18  1  0
 18  2  2  0
 17 12  1  0
  1 19  1  0
  1 20  1  0
  1 21  1  0
  3 22  1  0
  4 23  1  0
 11 24  1  0
 11 25  1  0
 13 26  1  0
 14 27  1  0
 15 28  1  0
 16 29  1  0
 17 30  1  0
 18 31  1  0
M  RAD  1   7   3
M  END
$$$$
