
     RDKit          3D

 31 32  0  0  0  0  0  0  0  0999 V2000
   -2.3492    2.4502   -0.7183 C   0  0  0  0  0  0  0  0  0  0  0  0
   -2.2271    0.9966   -0.3526 C   0  0  0  0  0  0  0  0  0  0  0  0
   -3.1467    0.4182    0.5360 C   0  0  0  0  0  0  0  0  0  0  0  0
   -3.0320   -0.9248    0.8948 C   0  0  0  0  0  0  0  0  0  0  0  0
   -1.9990   -1.7043    0.3743 C   0  0  0  0  0  0  0  0  0  0  0  0
   -1.0693   -1.1508   -0.5204 C   0  0  0  0  0  0  0  0  0  0  0  0
    0.0702   -2.0109   -1.0203 C   0  0  0  0  0  0  0  0  0  0  0  0
    1.2031   -2.1127    0.0112 C   0  0  0  0  0  0  0  0  0  0  0  0
    1.8603   -0.7784    0.2560 C   0  0  0  0  0  0  0  0  0  0  0  0
    1.4537    0.0267    1.3338 C   0  0  0  0  0  0  0  0  0  0  0  0
    2.0287    1.2862    1.5280 C   0  0  0  0  0  0  0  0  0  0  0  0
    3.0097    1.7515    0.6482 C   0  0  0  0  0  0  0  0  0  0  0  0
    3.4153    0.9592   -0.4293 C   0  0  0  0  0  0  0  0  0  0  0  0
    2.8413   -0.3002   -0.6286 C   0  0  0  0  0  0  0  0  0  0  0  0
   -1.1833    0.2106   -0.8818 C   0  0  0  0  0  0  0  0  0  0  0  0
   -0.2369    0.7999   -1.7746 N   0  0  0  0  0  1  0  0  0  0  0  0
   -1.4482    2.9985   -0.3709 H   0  0  0  0  0  0  0  0  0  0  0  0
   -2.4374    2.5541   -1.8203 H   0  0  0  0  0  0  0  0  0  0  0  0
   -3.2439    2.9165   -0.2533 H   0  0  0  0  0  0  0  0  0  0  0  0
   -3.9526    1.0072    0.9561 H   0  0  0  0  0  0  0  0  0  0  0  0
   -3.7428   -1.3619    1.5842 H   0  0  0  0  0  0  0  0  0  0  0  0
   -1.9182   -2.7418    0.6749 H   0  0  0  0  0  0  0  0  0  0  0  0
    0.4705   -1.6305   -1.9845 H   0  0  0  0  0  0  0  0  0  0  0  0
   -0.3116   -3.0343   -1.2280 H   0  0  0  0  0  0  0  0  0  0  0  0
    1.9635   -2.8328   -0.3619 H   0  0  0  0  0  0  0  0  0  0  0  0
    0.8088   -2.5311    0.9634 H   0  0  0  0  0  0  0  0  0  0  0  0
    0.6844   -0.3157    2.0149 H   0  0  0  0  0  0  0  0  0  0  0  0
    1.7103    1.9035    2.3581 H   0  0  0  0  0  0  0  0  0  0  0  0
    3.4527    2.7274    0.7990 H   0  0  0  0  0  0  0  0  0  0  0  0
    4.1710    1.3231   -1.1134 H   0  0  0  0  0  0  0  0  0  0  0  0
    3.1545   -0.8993   -1.4747 H   0  0  0  0  0  0  0  0  0  0  0  0
  1  2  1  0
  2  3  1  0
  3  4  2  0
  4  5  1  0
  5  6  2  0
  6  7  1  0
  7  8  1  0
  8  9  1  0
  9 10  2  0
 10 11  1  0
 11 12  2  0
 12 13  1  0
 13 14  2  0
  6 15  1  0
 15 16  1  0
 14  9  1  0
 15  2  2  0
  1 17  1  0
  1 18  1  0
  1 19  1  0
  3 20  1  0
  4 21  1  0
  5 22  1  0
  7 23  1  0
  7 24  1  0
  8 25  1  0
  8 26  1  0
 10 27  1  0
 11 28  1  0
 12 29  1  0
 13 30  1  0
 14 31  1  0
M  RAD  1  16   3
M  END
$$$$
