
     RDKit          3D

 31 32  0  0  0  0  0  0  0  0999 V2000
   -2.5092    2.3439    0.7327 C   0  0  0  0  0  0  0  0  0  0  0  0
   -2.2801    0.8636    0.5989 C   0  0  0  0  0  0  0  0  0  0  0  0
   -2.9982   -0.0321    1.4063 C   0  0  0  0  0  0  0  0  0  0  0  0
   -2.7806   -1.4060    1.3019 C   0  0  0  0  0  0  0  0  0  0  0  0
   -1.8442   -1.9011    0.3944 C   0  0  0  0  0  0  0  0  0  0  0  0
   -1.1167   -1.0262   -0.4281 C   0  0  0  0  0  0  0  0  0  0  0  0
   -0.0695   -1.5951   -1.3599 C   0  0  0  0  0  0  0  0  0  0  0  0
    1.2409   -1.9071   -0.6227 C   0  0  0  0  0  0  0  0  0  0  0  0
    1.8958   -0.6584   -0.0899 C   0  0  0  0  0  0  0  0  0  0  0  0
    2.6775    0.1462   -0.9354 C   0  0  0  0  0  0  0  0  0  0  0  0
    3.2443    1.3305   -0.4541 C   0  0  0  0  0  0  0  0  0  0  0  0
    3.0289    1.7228    0.8699 C   0  0  0  0  0  0  0  0  0  0  0  0
    2.2458    0.9319    1.7150 C   0  0  0  0  0  0  0  0  0  0  0  0
    1.6791   -0.2541    1.2387 C   0  0  0  0  0  0  0  0  0  0  0  0
   -1.3344    0.3659   -0.3206 C   0  0  0  0  0  0  0  0  0  0  0  0
   -0.5912    1.2755   -1.1330 N   0  0  0  0  0  1  0  0  0  0  0  0
   -1.5740    2.8361    1.0738 H   0  0  0  0  0  0  0  0  0  0  0  0
   -3.3118    2.5701    1.4665 H   0  0  0  0  0  0  0  0  0  0  0  0
   -2.8076    2.7680   -0.2492 H   0  0  0  0  0  0  0  0  0  0  0  0
   -3.7255    0.3317    2.1214 H   0  0  0  0  0  0  0  0  0  0  0  0
   -3.3355   -2.0896    1.9314 H   0  0  0  0  0  0  0  0  0  0  0  0
   -1.6793   -2.9701    0.3371 H   0  0  0  0  0  0  0  0  0  0  0  0
    0.1300   -0.9086   -2.2105 H   0  0  0  0  0  0  0  0  0  0  0  0
   -0.4556   -2.5365   -1.8082 H   0  0  0  0  0  0  0  0  0  0  0  0
    1.9362   -2.4136   -1.3271 H   0  0  0  0  0  0  0  0  0  0  0  0
    1.0460   -2.6256    0.2038 H   0  0  0  0  0  0  0  0  0  0  0  0
    2.8409   -0.1404   -1.9669 H   0  0  0  0  0  0  0  0  0  0  0  0
    3.8461    1.9469   -1.1092 H   0  0  0  0  0  0  0  0  0  0  0  0
    3.4655    2.6415    1.2398 H   0  0  0  0  0  0  0  0  0  0  0  0
    2.0739    1.2402    2.7381 H   0  0  0  0  0  0  0  0  0  0  0  0
    1.0627   -0.8504    1.9001 H   0  0  0  0  0  0  0  0  0  0  0  0
  1  2  1  0
  2  3  1  0
  3  4  2  0
  4  5  1  0
  5  6  2  0
  6  7  1  0
  7  8  1  0
  8  9  1  0
  9 10  2  0
 10 11  1  0
 11 12  2  0
 12 13  1  0
 13 14  2  0
  6 15  1  0
 15 16  1  0
 14  9  1  0
 15  2  2  0
  1 17  1  0
  1 18  1  0
  1 19  1  0
  3 20  1  0
  4 21  1  0
  5 22  1  0
  7 23  1  0
  7 24  1  0
  8 25  1  0
  8 26  1  0
 10 27  1  0
 11 28  1  0
 12 29  1  0
 13 30  1  0
 14 31  1  0
M  RAD  1  16   3
M  END
$$$$
