
     RDKit          3D

 31 32  0  0  0  0  0  0  0  0999 V2000
   -2.2570    1.9749   -1.8688 C   0  0  0  0  0  0  0  0  0  0  0  0
   -2.1794    0.7514   -0.9978 C   0  0  0  0  0  0  0  0  0  0  0  0
   -3.1781    0.5072   -0.0423 C   0  0  0  0  0  0  0  0  0  0  0  0
   -3.1062   -0.6157    0.7821 C   0  0  0  0  0  0  0  0  0  0  0  0
   -2.0381   -1.5049    0.6649 C   0  0  0  0  0  0  0  0  0  0  0  0
   -1.0290   -1.2858   -0.2864 C   0  0  0  0  0  0  0  0  0  0  0  0
    0.1429   -2.2405   -0.3465 C   0  0  0  0  0  0  0  0  0  0  0  0
    1.1802   -1.9398    0.7451 C   0  0  0  0  0  0  0  0  0  0  0  0
    1.8243   -0.5910    0.5505 C   0  0  0  0  0  0  0  0  0  0  0  0
    1.3313    0.5364    1.2297 C   0  0  0  0  0  0  0  0  0  0  0  0
    1.8974    1.7954    1.0079 C   0  0  0  0  0  0  0  0  0  0  0  0
    2.9556    1.9386    0.1063 C   0  0  0  0  0  0  0  0  0  0  0  0
    3.4476    0.8232   -0.5773 C   0  0  0  0  0  0  0  0  0  0  0  0
    2.8829   -0.4374   -0.3602 C   0  0  0  0  0  0  0  0  0  0  0  0
   -1.0996   -0.1468   -1.1197 C   0  0  0  0  0  0  0  0  0  0  0  0
   -0.0739    0.1068   -2.0807 N   0  0  0  0  0  1  0  0  0  0  0  0
   -1.3855    2.6324   -1.6659 H   0  0  0  0  0  0  0  0  0  0  0  0
   -3.1852    2.5551   -1.6793 H   0  0  0  0  0  0  0  0  0  0  0  0
   -2.2475    1.6758   -2.9381 H   0  0  0  0  0  0  0  0  0  0  0  0
   -4.0128    1.1881    0.0690 H   0  0  0  0  0  0  0  0  0  0  0  0
   -3.8783   -0.7942    1.5193 H   0  0  0  0  0  0  0  0  0  0  0  0
   -1.9924   -2.3641    1.3229 H   0  0  0  0  0  0  0  0  0  0  0  0
   -0.2276   -3.2793   -0.2054 H   0  0  0  0  0  0  0  0  0  0  0  0
    0.6293   -2.2205   -1.3454 H   0  0  0  0  0  0  0  0  0  0  0  0
    0.7005   -1.9994    1.7469 H   0  0  0  0  0  0  0  0  0  0  0  0
    1.9644   -2.7274    0.7206 H   0  0  0  0  0  0  0  0  0  0  0  0
    0.5025    0.4419    1.9205 H   0  0  0  0  0  0  0  0  0  0  0  0
    1.5125    2.6608    1.5316 H   0  0  0  0  0  0  0  0  0  0  0  0
    3.3916    2.9141   -0.0655 H   0  0  0  0  0  0  0  0  0  0  0  0
    4.2633    0.9364   -1.2796 H   0  0  0  0  0  0  0  0  0  0  0  0
    3.2642   -1.2918   -0.9056 H   0  0  0  0  0  0  0  0  0  0  0  0
  1  2  1  0
  2  3  1  0
  3  4  2  0
  4  5  1  0
  5  6  2  0
  6  7  1  0
  7  8  1  0
  8  9  1  0
  9 10  2  0
 10 11  1  0
 11 12  2  0
 12 13  1  0
 13 14  2  0
  6 15  1  0
 15 16  1  0
 14  9  1  0
 15  2  2  0
  1 17  1  0
  1 18  1  0
  1 19  1  0
  3 20  1  0
  4 21  1  0
  5 22  1  0
  7 23  1  0
  7 24  1  0
  8 25  1  0
  8 26  1  0
 10 27  1  0
 11 28  1  0
 12 29  1  0
 13 30  1  0
 14 31  1  0
M  RAD  1  16   3
M  END
$$$$
