
     RDKit          3D

 31 32  0  0  0  0  0  0  0  0999 V2000
   -4.4310    0.6116    1.5824 C   0  0  0  0  0  0  0  0  0  0  0  0
   -3.5462    0.0332    0.5126 C   0  0  0  0  0  0  0  0  0  0  0  0
   -4.0464   -0.9515   -0.3538 C   0  0  0  0  0  0  0  0  0  0  0  0
   -3.2292   -1.5047   -1.3399 C   0  0  0  0  0  0  0  0  0  0  0  0
   -1.9071   -1.0807   -1.4751 C   0  0  0  0  0  0  0  0  0  0  0  0
   -1.3875   -0.0882   -0.6287 C   0  0  0  0  0  0  0  0  0  0  0  0
    0.0565    0.3265   -0.7754 C   0  0  0  0  0  0  0  0  0  0  0  0
    0.9533   -0.5064    0.1455 C   0  0  0  0  0  0  0  0  0  0  0  0
    2.3919   -0.0882    0.0027 C   0  0  0  0  0  0  0  0  0  0  0  0
    3.2128   -0.6910   -0.9653 C   0  0  0  0  0  0  0  0  0  0  0  0
    4.5400   -0.2780   -1.1187 C   0  0  0  0  0  0  0  0  0  0  0  0
    5.0531    0.7441   -0.3152 C   0  0  0  0  0  0  0  0  0  0  0  0
    4.2384    1.3581    0.6402 C   0  0  0  0  0  0  0  0  0  0  0  0
    2.9106    0.9482    0.7969 C   0  0  0  0  0  0  0  0  0  0  0  0
   -2.2092    0.4609    0.3800 C   0  0  0  0  0  0  0  0  0  0  0  0
   -1.6870    1.4464    1.2722 N   0  0  0  0  0  1  0  0  0  0  0  0
   -5.4636    0.2062    1.5240 H   0  0  0  0  0  0  0  0  0  0  0  0
   -4.4851    1.7149    1.4690 H   0  0  0  0  0  0  0  0  0  0  0  0
   -4.0151    0.3676    2.5826 H   0  0  0  0  0  0  0  0  0  0  0  0
   -5.0691   -1.2965   -0.2644 H   0  0  0  0  0  0  0  0  0  0  0  0
   -3.6211   -2.2681   -1.9998 H   0  0  0  0  0  0  0  0  0  0  0  0
   -1.2855   -1.5290   -2.2406 H   0  0  0  0  0  0  0  0  0  0  0  0
    0.3828    0.1929   -1.8308 H   0  0  0  0  0  0  0  0  0  0  0  0
    0.1701    1.4071   -0.5397 H   0  0  0  0  0  0  0  0  0  0  0  0
    0.8480   -1.5852   -0.1053 H   0  0  0  0  0  0  0  0  0  0  0  0
    0.6293   -0.3804    1.2021 H   0  0  0  0  0  0  0  0  0  0  0  0
    2.8246   -1.4776   -1.6005 H   0  0  0  0  0  0  0  0  0  0  0  0
    5.1699   -0.7481   -1.8628 H   0  0  0  0  0  0  0  0  0  0  0  0
    6.0801    1.0634   -0.4361 H   0  0  0  0  0  0  0  0  0  0  0  0
    4.6348    2.1541    1.2572 H   0  0  0  0  0  0  0  0  0  0  0  0
    2.2869    1.4383    1.5343 H   0  0  0  0  0  0  0  0  0  0  0  0
  1  2  1  0
  2  3  1  0
  3  4  2  0
  4  5  1  0
  5  6  2  0
  6  7  1  0
  7  8  1  0
  8  9  1  0
  9 10  2  0
 10 11  1  0
 11 12  2  0
 12 13  1  0
 13 14  2  0
  6 15  1  0
 15 16  1  0
 14  9  1  0
 15  2  2  0
  1 17  1  0
  1 18  1  0
  1 19  1  0
  3 20  1  0
  4 21  1  0
  5 22  1  0
  7 23  1  0
  7 24  1  0
  8 25  1  0
  8 26  1  0
 10 27  1  0
 11 28  1  0
 12 29  1  0
 13 30  1  0
 14 31  1  0
M  RAD  1  16   3
M  END
$$$$
