
     RDKit          3D

 31 32  0  0  0  0  0  0  0  0999 V2000
   -2.6143    1.8572    1.2891 C   0  0  0  0  0  0  0  0  0  0  0  0
   -2.1824    0.4416    1.0228 C   0  0  0  0  0  0  0  0  0  0  0  0
   -2.4617   -0.5643    1.9610 C   0  0  0  0  0  0  0  0  0  0  0  0
   -2.0503   -1.8771    1.7312 C   0  0  0  0  0  0  0  0  0  0  0  0
   -1.3547   -2.2008    0.5664 C   0  0  0  0  0  0  0  0  0  0  0  0
   -1.0674   -1.2139   -0.3900 C   0  0  0  0  0  0  0  0  0  0  0  0
   -0.2621   -1.5904   -1.6140 C   0  0  0  0  0  0  0  0  0  0  0  0
    1.2414   -1.6576   -1.3092 C   0  0  0  0  0  0  0  0  0  0  0  0
    1.7981   -0.3086   -0.9321 C   0  0  0  0  0  0  0  0  0  0  0  0
    2.1417    0.6188   -1.9297 C   0  0  0  0  0  0  0  0  0  0  0  0
    2.6115    1.8884   -1.5791 C   0  0  0  0  0  0  0  0  0  0  0  0
    2.7344    2.2429   -0.2328 C   0  0  0  0  0  0  0  0  0  0  0  0
    2.3870    1.3287    0.7655 C   0  0  0  0  0  0  0  0  0  0  0  0
    1.9190    0.0575    0.4195 C   0  0  0  0  0  0  0  0  0  0  0  0
   -1.4811    0.1169   -0.1563 C   0  0  0  0  0  0  0  0  0  0  0  0
   -1.1821    1.1409   -1.1061 N   0  0  0  0  0  1  0  0  0  0  0  0
   -3.2595    2.2154    0.4594 H   0  0  0  0  0  0  0  0  0  0  0  0
   -1.7202    2.5114    1.3646 H   0  0  0  0  0  0  0  0  0  0  0  0
   -3.1894    1.9394    2.2359 H   0  0  0  0  0  0  0  0  0  0  0  0
   -2.9954   -0.3332    2.8745 H   0  0  0  0  0  0  0  0  0  0  0  0
   -2.2659   -2.6459    2.4620 H   0  0  0  0  0  0  0  0  0  0  0  0
   -1.0316   -3.2230    0.4118 H   0  0  0  0  0  0  0  0  0  0  0  0
   -0.4464   -0.8839   -2.4516 H   0  0  0  0  0  0  0  0  0  0  0  0
   -0.5947   -2.5883   -1.9744 H   0  0  0  0  0  0  0  0  0  0  0  0
    1.4283   -2.3948   -0.4975 H   0  0  0  0  0  0  0  0  0  0  0  0
    1.7729   -2.0347   -2.2100 H   0  0  0  0  0  0  0  0  0  0  0  0
    2.0385    0.3606   -2.9764 H   0  0  0  0  0  0  0  0  0  0  0  0
    2.8753    2.5993   -2.3514 H   0  0  0  0  0  0  0  0  0  0  0  0
    3.0949    3.2271    0.0367 H   0  0  0  0  0  0  0  0  0  0  0  0
    2.4759    1.6067    1.8077 H   0  0  0  0  0  0  0  0  0  0  0  0
    1.6399   -0.6362    1.2030 H   0  0  0  0  0  0  0  0  0  0  0  0
  1  2  1  0
  2  3  1  0
  3  4  2  0
  4  5  1  0
  5  6  2  0
  6  7  1  0
  7  8  1  0
  8  9  1  0
  9 10  2  0
 10 11  1  0
 11 12  2  0
 12 13  1  0
 13 14  2  0
  6 15  1  0
 15 16  1  0
 14  9  1  0
 15  2  2  0
  1 17  1  0
  1 18  1  0
  1 19  1  0
  3 20  1  0
  4 21  1  0
  5 22  1  0
  7 23  1  0
  7 24  1  0
  8 25  1  0
  8 26  1  0
 10 27  1  0
 11 28  1  0
 12 29  1  0
 13 30  1  0
 14 31  1  0
M  RAD  1  16   3
M  END
$$$$
