
     RDKit          3D

 31 32  0  0  0  0  0  0  0  0999 V2000
   -2.4974    1.4082    1.9540 C   0  0  0  0  0  0  0  0  0  0  0  0
   -2.2629    0.3470    0.9145 C   0  0  0  0  0  0  0  0  0  0  0  0
   -2.9248   -0.8868    1.0114 C   0  0  0  0  0  0  0  0  0  0  0  0
   -2.7011   -1.8838    0.0619 C   0  0  0  0  0  0  0  0  0  0  0  0
   -1.8143   -1.6629   -0.9918 C   0  0  0  0  0  0  0  0  0  0  0  0
   -1.1437   -0.4355   -1.1139 C   0  0  0  0  0  0  0  0  0  0  0  0
   -0.1470   -0.2522   -2.2371 C   0  0  0  0  0  0  0  0  0  0  0  0
    1.2066   -0.8990   -1.9097 C   0  0  0  0  0  0  0  0  0  0  0  0
    1.8798   -0.2292   -0.7391 C   0  0  0  0  0  0  0  0  0  0  0  0
    1.7367   -0.7526    0.5575 C   0  0  0  0  0  0  0  0  0  0  0  0
    2.3191   -0.1003    1.6483 C   0  0  0  0  0  0  0  0  0  0  0  0
    3.0447    1.0782    1.4539 C   0  0  0  0  0  0  0  0  0  0  0  0
    3.1867    1.6080    0.1685 C   0  0  0  0  0  0  0  0  0  0  0  0
    2.6039    0.9601   -0.9251 C   0  0  0  0  0  0  0  0  0  0  0  0
   -1.3676    0.5738   -0.1505 C   0  0  0  0  0  0  0  0  0  0  0  0
   -0.6809    1.8227   -0.2436 N   0  0  0  0  0  1  0  0  0  0  0  0
   -1.5486    1.6198    2.4908 H   0  0  0  0  0  0  0  0  0  0  0  0
   -2.8561    2.3390    1.4662 H   0  0  0  0  0  0  0  0  0  0  0  0
   -3.2582    1.0917    2.6990 H   0  0  0  0  0  0  0  0  0  0  0  0
   -3.6129   -1.0809    1.8249 H   0  0  0  0  0  0  0  0  0  0  0  0
   -3.2124   -2.8341    0.1465 H   0  0  0  0  0  0  0  0  0  0  0  0
   -1.6433   -2.4538   -1.7119 H   0  0  0  0  0  0  0  0  0  0  0  0
   -0.0034    0.8229   -2.4781 H   0  0  0  0  0  0  0  0  0  0  0  0
   -0.5498   -0.7234   -3.1602 H   0  0  0  0  0  0  0  0  0  0  0  0
    1.0665   -1.9838   -1.7077 H   0  0  0  0  0  0  0  0  0  0  0  0
    1.8646   -0.8242   -2.8028 H   0  0  0  0  0  0  0  0  0  0  0  0
    1.1651   -1.6573    0.7240 H   0  0  0  0  0  0  0  0  0  0  0  0
    2.2038   -0.5060    2.6451 H   0  0  0  0  0  0  0  0  0  0  0  0
    3.4935    1.5828    2.2997 H   0  0  0  0  0  0  0  0  0  0  0  0
    3.7439    2.5239    0.0200 H   0  0  0  0  0  0  0  0  0  0  0  0
    2.7099    1.3876   -1.9145 H   0  0  0  0  0  0  0  0  0  0  0  0
  1  2  1  0
  2  3  1  0
  3  4  2  0
  4  5  1  0
  5  6  2  0
  6  7  1  0
  7  8  1  0
  8  9  1  0
  9 10  2  0
 10 11  1  0
 11 12  2  0
 12 13  1  0
 13 14  2  0
  6 15  1  0
 15 16  1  0
 14  9  1  0
 15  2  2  0
  1 17  1  0
  1 18  1  0
  1 19  1  0
  3 20  1  0
  4 21  1  0
  5 22  1  0
  7 23  1  0
  7 24  1  0
  8 25  1  0
  8 26  1  0
 10 27  1  0
 11 28  1  0
 12 29  1  0
 13 30  1  0
 14 31  1  0
M  RAD  1  16   3
M  END
$$$$
