
     RDKit          3D

 31 32  0  0  0  0  0  0  0  0999 V2000
   -2.4178    2.3772   -0.7356 C   0  0  0  0  0  0  0  0  0  0  0  0
   -2.2484    0.9139   -0.4329 C   0  0  0  0  0  0  0  0  0  0  0  0
   -3.1878    0.2519    0.3728 C   0  0  0  0  0  0  0  0  0  0  0  0
   -3.0303   -1.1011    0.6735 C   0  0  0  0  0  0  0  0  0  0  0  0
   -1.9348   -1.8073    0.1771 C   0  0  0  0  0  0  0  0  0  0  0  0
   -0.9838   -1.1693   -0.6353 C   0  0  0  0  0  0  0  0  0  0  0  0
    0.2208   -1.9524   -1.1088 C   0  0  0  0  0  0  0  0  0  0  0  0
    1.2982   -2.0555   -0.0196 C   0  0  0  0  0  0  0  0  0  0  0  0
    1.8777   -0.7075    0.3257 C   0  0  0  0  0  0  0  0  0  0  0  0
    1.3746    0.0240    1.4153 C   0  0  0  0  0  0  0  0  0  0  0  0
    1.8784    1.2963    1.7018 C   0  0  0  0  0  0  0  0  0  0  0  0
    2.8839    1.8478    0.9031 C   0  0  0  0  0  0  0  0  0  0  0  0
    3.3853    1.1289   -0.1855 C   0  0  0  0  0  0  0  0  0  0  0  0
    2.8827   -0.1430   -0.4772 C   0  0  0  0  0  0  0  0  0  0  0  0
   -1.1411    0.2021   -0.9376 C   0  0  0  0  0  0  0  0  0  0  0  0
   -0.1753    0.8764   -1.7453 N   0  0  0  0  0  1  0  0  0  0  0  0
   -1.5642    2.9466   -0.3112 H   0  0  0  0  0  0  0  0  0  0  0  0
   -2.4495    2.5321   -1.8347 H   0  0  0  0  0  0  0  0  0  0  0  0
   -3.3578    2.7798   -0.3014 H   0  0  0  0  0  0  0  0  0  0  0  0
   -4.0424    0.7831    0.7731 H   0  0  0  0  0  0  0  0  0  0  0  0
   -3.7571   -1.6029    1.2992 H   0  0  0  0  0  0  0  0  0  0  0  0
   -1.8222   -2.8539    0.4323 H   0  0  0  0  0  0  0  0  0  0  0  0
   -0.1007   -2.9799   -1.3865 H   0  0  0  0  0  0  0  0  0  0  0  0
    0.6557   -1.5069   -2.0292 H   0  0  0  0  0  0  0  0  0  0  0  0
    2.1110   -2.7219   -0.3819 H   0  0  0  0  0  0  0  0  0  0  0  0
    0.8717   -2.5380    0.8873 H   0  0  0  0  0  0  0  0  0  0  0  0
    0.5856   -0.3856    2.0338 H   0  0  0  0  0  0  0  0  0  0  0  0
    1.4859    1.8567    2.5405 H   0  0  0  0  0  0  0  0  0  0  0  0
    3.2716    2.8335    1.1254 H   0  0  0  0  0  0  0  0  0  0  0  0
    4.1599    1.5595   -0.8068 H   0  0  0  0  0  0  0  0  0  0  0  0
    3.2701   -0.6846   -1.3312 H   0  0  0  0  0  0  0  0  0  0  0  0
  1  2  1  0
  2  3  1  0
  3  4  2  0
  4  5  1  0
  5  6  2  0
  6  7  1  0
  7  8  1  0
  8  9  1  0
  9 10  2  0
 10 11  1  0
 11 12  2  0
 12 13  1  0
 13 14  2  0
  6 15  1  0
 15 16  1  0
 14  9  1  0
 15  2  2  0
  1 17  1  0
  1 18  1  0
  1 19  1  0
  3 20  1  0
  4 21  1  0
  5 22  1  0
  7 23  1  0
  7 24  1  0
  8 25  1  0
  8 26  1  0
 10 27  1  0
 11 28  1  0
 12 29  1  0
 13 30  1  0
 14 31  1  0
M  RAD  1  16   3
M  END
$$$$
