
     RDKit          3D

 31 32  0  0  0  0  0  0  0  0999 V2000
   -4.4380    1.7592    0.3183 C   0  0  0  0  0  0  0  0  0  0  0  0
   -3.5528    0.5661    0.0840 C   0  0  0  0  0  0  0  0  0  0  0  0
   -4.1008   -0.7263    0.0971 C   0  0  0  0  0  0  0  0  0  0  0  0
   -3.2856   -1.8403   -0.1045 C   0  0  0  0  0  0  0  0  0  0  0  0
   -1.9175   -1.6785   -0.3244 C   0  0  0  0  0  0  0  0  0  0  0  0
   -1.3481   -0.3953   -0.3544 C   0  0  0  0  0  0  0  0  0  0  0  0
    0.1404   -0.2520   -0.5600 C   0  0  0  0  0  0  0  0  0  0  0  0
    0.8703   -0.2180    0.7862 C   0  0  0  0  0  0  0  0  0  0  0  0
    2.3536   -0.0693    0.5802 C   0  0  0  0  0  0  0  0  0  0  0  0
    2.9308    1.2079    0.4826 C   0  0  0  0  0  0  0  0  0  0  0  0
    4.3044    1.3445    0.2583 C   0  0  0  0  0  0  0  0  0  0  0  0
    5.1080    0.2093    0.1203 C   0  0  0  0  0  0  0  0  0  0  0  0
    4.5387   -1.0645    0.2021 C   0  0  0  0  0  0  0  0  0  0  0  0
    3.1656   -1.2056    0.4263 C   0  0  0  0  0  0  0  0  0  0  0  0
   -2.1698    0.7319   -0.1345 C   0  0  0  0  0  0  0  0  0  0  0  0
   -1.6018    2.0423   -0.1272 N   0  0  0  0  0  1  0  0  0  0  0  0
   -5.5035    1.4643    0.4263 H   0  0  0  0  0  0  0  0  0  0  0  0
   -4.1231    2.2806    1.2466 H   0  0  0  0  0  0  0  0  0  0  0  0
   -4.3578    2.4602   -0.5391 H   0  0  0  0  0  0  0  0  0  0  0  0
   -5.1599   -0.8743    0.2684 H   0  0  0  0  0  0  0  0  0  0  0  0
   -3.7152   -2.8337   -0.0866 H   0  0  0  0  0  0  0  0  0  0  0  0
   -1.2995   -2.5561   -0.4694 H   0  0  0  0  0  0  0  0  0  0  0  0
    0.5219   -1.1029   -1.1672 H   0  0  0  0  0  0  0  0  0  0  0  0
    0.3600    0.6745   -1.1341 H   0  0  0  0  0  0  0  0  0  0  0  0
    0.4902    0.6284    1.3998 H   0  0  0  0  0  0  0  0  0  0  0  0
    0.6602   -1.1542    1.3494 H   0  0  0  0  0  0  0  0  0  0  0  0
    2.3174    2.0954    0.5784 H   0  0  0  0  0  0  0  0  0  0  0  0
    4.7452    2.3305    0.1880 H   0  0  0  0  0  0  0  0  0  0  0  0
    6.1707    0.3168   -0.0546 H   0  0  0  0  0  0  0  0  0  0  0  0
    5.1609   -1.9428    0.0883 H   0  0  0  0  0  0  0  0  0  0  0  0
    2.7351   -2.1981    0.4783 H   0  0  0  0  0  0  0  0  0  0  0  0
  1  2  1  0
  2  3  1  0
  3  4  2  0
  4  5  1  0
  5  6  2  0
  6  7  1  0
  7  8  1  0
  8  9  1  0
  9 10  2  0
 10 11  1  0
 11 12  2  0
 12 13  1  0
 13 14  2  0
  6 15  1  0
 15 16  1  0
 14  9  1  0
 15  2  2  0
  1 17  1  0
  1 18  1  0
  1 19  1  0
  3 20  1  0
  4 21  1  0
  5 22  1  0
  7 23  1  0
  7 24  1  0
  8 25  1  0
  8 26  1  0
 10 27  1  0
 11 28  1  0
 12 29  1  0
 13 30  1  0
 14 31  1  0
M  RAD  1  16   3
M  END
$$$$
