
     RDKit          3D

 31 32  0  0  0  0  0  0  0  0999 V2000
   -2.3462    2.3635    0.9734 C   0  0  0  0  0  0  0  0  0  0  0  0
   -2.2061    0.9082    0.6213 C   0  0  0  0  0  0  0  0  0  0  0  0
   -2.9270   -0.0588    1.3391 C   0  0  0  0  0  0  0  0  0  0  0  0
   -2.7910   -1.4125    1.0316 C   0  0  0  0  0  0  0  0  0  0  0  0
   -1.9339   -1.8168    0.0081 C   0  0  0  0  0  0  0  0  0  0  0  0
   -1.2056   -0.8688   -0.7282 C   0  0  0  0  0  0  0  0  0  0  0  0
   -0.2435   -1.3478   -1.7927 C   0  0  0  0  0  0  0  0  0  0  0  0
    1.0861   -1.8218   -1.1884 C   0  0  0  0  0  0  0  0  0  0  0  0
    1.8364   -0.6932   -0.5286 C   0  0  0  0  0  0  0  0  0  0  0  0
    2.6138    0.1861   -1.3007 C   0  0  0  0  0  0  0  0  0  0  0  0
    3.2698    1.2624   -0.6954 C   0  0  0  0  0  0  0  0  0  0  0  0
    3.1487    1.4725    0.6810 C   0  0  0  0  0  0  0  0  0  0  0  0
    2.3708    0.6069    1.4547 C   0  0  0  0  0  0  0  0  0  0  0  0
    1.7150   -0.4719    0.8540 C   0  0  0  0  0  0  0  0  0  0  0  0
   -1.3407    0.5025   -0.4150 C   0  0  0  0  0  0  0  0  0  0  0  0
   -0.5942    1.4827   -1.1374 N   0  0  0  0  0  1  0  0  0  0  0  0
   -3.0940    2.5203    1.7797 H   0  0  0  0  0  0  0  0  0  0  0  0
   -1.3683    2.7583    1.3212 H   0  0  0  0  0  0  0  0  0  0  0  0
   -2.6742    2.9360    0.0803 H   0  0  0  0  0  0  0  0  0  0  0  0
   -3.5933    0.2334    2.1414 H   0  0  0  0  0  0  0  0  0  0  0  0
   -3.3472   -2.1520    1.5931 H   0  0  0  0  0  0  0  0  0  0  0  0
   -1.8312   -2.8733   -0.2073 H   0  0  0  0  0  0  0  0  0  0  0  0
   -0.7044   -2.1971   -2.3429 H   0  0  0  0  0  0  0  0  0  0  0  0
   -0.0535   -0.5576   -2.5504 H   0  0  0  0  0  0  0  0  0  0  0  0
    1.7132   -2.2550   -1.9978 H   0  0  0  0  0  0  0  0  0  0  0  0
    0.8976   -2.6405   -0.4593 H   0  0  0  0  0  0  0  0  0  0  0  0
    2.7047    0.0414   -2.3701 H   0  0  0  0  0  0  0  0  0  0  0  0
    3.8679    1.9369   -1.2944 H   0  0  0  0  0  0  0  0  0  0  0  0
    3.6545    2.3081    1.1473 H   0  0  0  0  0  0  0  0  0  0  0  0
    2.2720    0.7745    2.5193 H   0  0  0  0  0  0  0  0  0  0  0  0
    1.1038   -1.1267    1.4629 H   0  0  0  0  0  0  0  0  0  0  0  0
  1  2  1  0
  2  3  1  0
  3  4  2  0
  4  5  1  0
  5  6  2  0
  6  7  1  0
  7  8  1  0
  8  9  1  0
  9 10  2  0
 10 11  1  0
 11 12  2  0
 12 13  1  0
 13 14  2  0
  6 15  1  0
 15 16  1  0
 14  9  1  0
 15  2  2  0
  1 17  1  0
  1 18  1  0
  1 19  1  0
  3 20  1  0
  4 21  1  0
  5 22  1  0
  7 23  1  0
  7 24  1  0
  8 25  1  0
  8 26  1  0
 10 27  1  0
 11 28  1  0
 12 29  1  0
 13 30  1  0
 14 31  1  0
M  RAD  1  16   3
M  END
$$$$
