
     RDKit          3D

 31 32  0  0  0  0  0  0  0  0999 V2000
   -4.4826    0.5464   -1.4687 C   0  0  0  0  0  0  0  0  0  0  0  0
   -3.5678    0.2185   -0.3209 C   0  0  0  0  0  0  0  0  0  0  0  0
   -4.0788   -0.4127    0.8241 C   0  0  0  0  0  0  0  0  0  0  0  0
   -3.2356   -0.7342    1.8881 C   0  0  0  0  0  0  0  0  0  0  0  0
   -1.8762   -0.4275    1.8238 C   0  0  0  0  0  0  0  0  0  0  0  0
   -1.3439    0.2149    0.6945 C   0  0  0  0  0  0  0  0  0  0  0  0
    0.1367    0.5036    0.6379 C   0  0  0  0  0  0  0  0  0  0  0  0
    0.8859   -0.6499   -0.0360 C   0  0  0  0  0  0  0  0  0  0  0  0
    2.3612   -0.3586   -0.0971 C   0  0  0  0  0  0  0  0  0  0  0  0
    2.9005    0.3411   -1.1897 C   0  0  0  0  0  0  0  0  0  0  0  0
    4.2660    0.6400   -1.2296 C   0  0  0  0  0  0  0  0  0  0  0  0
    5.0991    0.2520   -0.1766 C   0  0  0  0  0  0  0  0  0  0  0  0
    4.5674   -0.4319    0.9202 C   0  0  0  0  0  0  0  0  0  0  0  0
    3.2024   -0.7329    0.9641 C   0  0  0  0  0  0  0  0  0  0  0  0
   -2.1935    0.5264   -0.3894 C   0  0  0  0  0  0  0  0  0  0  0  0
   -1.6628    1.1486   -1.5604 N   0  0  0  0  0  1  0  0  0  0  0  0
   -4.1683   -0.0209   -2.3699 H   0  0  0  0  0  0  0  0  0  0  0  0
   -5.5376    0.2843   -1.2401 H   0  0  0  0  0  0  0  0  0  0  0  0
   -4.4356    1.6340   -1.6874 H   0  0  0  0  0  0  0  0  0  0  0  0
   -5.1305   -0.6616    0.8934 H   0  0  0  0  0  0  0  0  0  0  0  0
   -3.6367   -1.2265    2.7647 H   0  0  0  0  0  0  0  0  0  0  0  0
   -1.2360   -0.6937    2.6560 H   0  0  0  0  0  0  0  0  0  0  0  0
    0.5326    0.6518    1.6672 H   0  0  0  0  0  0  0  0  0  0  0  0
    0.3211    1.4503    0.0847 H   0  0  0  0  0  0  0  0  0  0  0  0
    0.4916   -0.8058   -1.0644 H   0  0  0  0  0  0  0  0  0  0  0  0
    0.7111   -1.5913    0.5305 H   0  0  0  0  0  0  0  0  0  0  0  0
    2.2638    0.6555   -2.0075 H   0  0  0  0  0  0  0  0  0  0  0  0
    4.6777    1.1756   -2.0752 H   0  0  0  0  0  0  0  0  0  0  0  0
    6.1555    0.4853   -0.2083 H   0  0  0  0  0  0  0  0  0  0  0  0
    5.2123   -0.7259    1.7382 H   0  0  0  0  0  0  0  0  0  0  0  0
    2.8011   -1.2550    1.8239 H   0  0  0  0  0  0  0  0  0  0  0  0
  1  2  1  0
  2  3  1  0
  3  4  2  0
  4  5  1  0
  5  6  2  0
  6  7  1  0
  7  8  1  0
  8  9  1  0
  9 10  2  0
 10 11  1  0
 11 12  2  0
 12 13  1  0
 13 14  2  0
  6 15  1  0
 15 16  1  0
 14  9  1  0
 15  2  2  0
  1 17  1  0
  1 18  1  0
  1 19  1  0
  3 20  1  0
  4 21  1  0
  5 22  1  0
  7 23  1  0
  7 24  1  0
  8 25  1  0
  8 26  1  0
 10 27  1  0
 11 28  1  0
 12 29  1  0
 13 30  1  0
 14 31  1  0
M  RAD  1  16   3
M  END
$$$$
