
     RDKit          3D

 31 32  0  0  0  0  0  0  0  0999 V2000
   -4.6407   -1.0669   -0.3109 C   0  0  0  0  0  0  0  0  0  0  0  0
   -3.5965   -0.0218   -0.0291 C   0  0  0  0  0  0  0  0  0  0  0  0
   -3.9594    1.1797    0.5996 C   0  0  0  0  0  0  0  0  0  0  0  0
   -2.9958    2.1491    0.8785 C   0  0  0  0  0  0  0  0  0  0  0  0
   -1.6620    1.9332    0.5313 C   0  0  0  0  0  0  0  0  0  0  0  0
   -1.2764    0.7448   -0.1095 C   0  0  0  0  0  0  0  0  0  0  0  0
    0.1792    0.5235   -0.4426 C   0  0  0  0  0  0  0  0  0  0  0  0
    0.8875   -0.2140    0.6978 C   0  0  0  0  0  0  0  0  0  0  0  0
    2.3372   -0.4392    0.3623 C   0  0  0  0  0  0  0  0  0  0  0  0
    2.7318   -1.5925   -0.3365 C   0  0  0  0  0  0  0  0  0  0  0  0
    4.0745   -1.7847   -0.6765 C   0  0  0  0  0  0  0  0  0  0  0  0
    5.0292   -0.8243   -0.3306 C   0  0  0  0  0  0  0  0  0  0  0  0
    4.6421    0.3321    0.3522 C   0  0  0  0  0  0  0  0  0  0  0  0
    3.3004    0.5283    0.6941 C   0  0  0  0  0  0  0  0  0  0  0  0
   -2.2485   -0.2437   -0.3778 C   0  0  0  0  0  0  0  0  0  0  0  0
   -1.8684   -1.4730   -0.9977 N   0  0  0  0  0  1  0  0  0  0  0  0
   -4.6527   -1.3027   -1.3959 H   0  0  0  0  0  0  0  0  0  0  0  0
   -4.4082   -1.9900    0.2606 H   0  0  0  0  0  0  0  0  0  0  0  0
   -5.6557   -0.7213   -0.0202 H   0  0  0  0  0  0  0  0  0  0  0  0
   -4.9888    1.3663    0.8796 H   0  0  0  0  0  0  0  0  0  0  0  0
   -3.2832    3.0701    1.3692 H   0  0  0  0  0  0  0  0  0  0  0  0
   -0.9269    2.6937    0.7647 H   0  0  0  0  0  0  0  0  0  0  0  0
    0.6796    1.5016   -0.6189 H   0  0  0  0  0  0  0  0  0  0  0  0
    0.2718   -0.0580   -1.3858 H   0  0  0  0  0  0  0  0  0  0  0  0
    0.3890   -1.1913    0.8818 H   0  0  0  0  0  0  0  0  0  0  0  0
    0.8056    0.3796    1.6352 H   0  0  0  0  0  0  0  0  0  0  0  0
    2.0002   -2.3397   -0.6185 H   0  0  0  0  0  0  0  0  0  0  0  0
    4.3744   -2.6767   -1.2112 H   0  0  0  0  0  0  0  0  0  0  0  0
    6.0679   -0.9740   -0.5957 H   0  0  0  0  0  0  0  0  0  0  0  0
    5.3812    1.0784    0.6136 H   0  0  0  0  0  0  0  0  0  0  0  0
    3.0118    1.4331    1.2149 H   0  0  0  0  0  0  0  0  0  0  0  0
  1  2  1  0
  2  3  1  0
  3  4  2  0
  4  5  1  0
  5  6  2  0
  6  7  1  0
  7  8  1  0
  8  9  1  0
  9 10  2  0
 10 11  1  0
 11 12  2  0
 12 13  1  0
 13 14  2  0
  6 15  1  0
 15 16  1  0
 14  9  1  0
 15  2  2  0
  1 17  1  0
  1 18  1  0
  1 19  1  0
  3 20  1  0
  4 21  1  0
  5 22  1  0
  7 23  1  0
  7 24  1  0
  8 25  1  0
  8 26  1  0
 10 27  1  0
 11 28  1  0
 12 29  1  0
 13 30  1  0
 14 31  1  0
M  RAD  1  16   3
M  END
$$$$
