
     RDKit          3D

 31 32  0  0  0  0  0  0  0  0999 V2000
    4.3818    1.2828    1.3730 C   0  0  0  0  0  0  0  0  0  0  0  0
    3.5242    0.6039    0.3463 C   0  0  0  0  0  0  0  0  0  0  0  0
    4.1111   -0.1777   -0.6584 C   0  0  0  0  0  0  0  0  0  0  0  0
    3.3153   -0.7879   -1.6302 C   0  0  0  0  0  0  0  0  0  0  0  0
    1.9278   -0.6106   -1.6213 C   0  0  0  0  0  0  0  0  0  0  0  0
    1.1381   -1.2584   -2.6165 N   0  0  0  0  0  1  0  0  0  0  0  0
    1.3272    0.2015   -0.6369 C   0  0  0  0  0  0  0  0  0  0  0  0
   -0.1688    0.3938   -0.5862 C   0  0  0  0  0  0  0  0  0  0  0  0
   -0.8292   -0.7265    0.2228 C   0  0  0  0  0  0  0  0  0  0  0  0
   -2.3212   -0.5355    0.2710 C   0  0  0  0  0  0  0  0  0  0  0  0
   -3.1380   -1.0788   -0.7349 C   0  0  0  0  0  0  0  0  0  0  0  0
   -4.5208   -0.8727   -0.7067 C   0  0  0  0  0  0  0  0  0  0  0  0
   -5.0956   -0.1160    0.3183 C   0  0  0  0  0  0  0  0  0  0  0  0
   -4.2880    0.4394    1.3146 C   0  0  0  0  0  0  0  0  0  0  0  0
   -2.9047    0.2357    1.2902 C   0  0  0  0  0  0  0  0  0  0  0  0
    2.1347    0.7989    0.3464 C   0  0  0  0  0  0  0  0  0  0  0  0
    3.8328    1.3892    2.3329 H   0  0  0  0  0  0  0  0  0  0  0  0
    4.6687    2.2904    1.0062 H   0  0  0  0  0  0  0  0  0  0  0  0
    5.3024    0.6926    1.5684 H   0  0  0  0  0  0  0  0  0  0  0  0
    5.1844   -0.3200   -0.6862 H   0  0  0  0  0  0  0  0  0  0  0  0
    3.7795   -1.4012   -2.3925 H   0  0  0  0  0  0  0  0  0  0  0  0
   -0.5871    0.4146   -1.6163 H   0  0  0  0  0  0  0  0  0  0  0  0
   -0.4077    1.3768   -0.1228 H   0  0  0  0  0  0  0  0  0  0  0  0
   -0.4171   -0.7349    1.2562 H   0  0  0  0  0  0  0  0  0  0  0  0
   -0.5917   -1.7121   -0.2351 H   0  0  0  0  0  0  0  0  0  0  0  0
   -2.7037   -1.6591   -1.5397 H   0  0  0  0  0  0  0  0  0  0  0  0
   -5.1465   -1.2966   -1.4815 H   0  0  0  0  0  0  0  0  0  0  0  0
   -6.1659    0.0437    0.3379 H   0  0  0  0  0  0  0  0  0  0  0  0
   -4.7335    1.0308    2.1041 H   0  0  0  0  0  0  0  0  0  0  0  0
   -2.2888    0.6793    2.0628 H   0  0  0  0  0  0  0  0  0  0  0  0
    1.6805    1.4145    1.1142 H   0  0  0  0  0  0  0  0  0  0  0  0
  1  2  1  0
  2  3  1  0
  3  4  2  0
  4  5  1  0
  5  6  1  0
  5  7  2  0
  7  8  1  0
  8  9  1  0
  9 10  1  0
 10 11  2  0
 11 12  1  0
 12 13  2  0
 13 14  1  0
 14 15  2  0
  7 16  1  0
 15 10  1  0
 16  2  2  0
  1 17  1  0
  1 18  1  0
  1 19  1  0
  3 20  1  0
  4 21  1  0
  8 22  1  0
  8 23  1  0
  9 24  1  0
  9 25  1  0
 11 26  1  0
 12 27  1  0
 13 28  1  0
 14 29  1  0
 15 30  1  0
 16 31  1  0
M  RAD  1   6   3
M  END
$$$$
