
     RDKit          3D

 31 32  0  0  0  0  0  0  0  0999 V2000
   -4.3890    1.7968   -0.4530 C   0  0  0  0  0  0  0  0  0  0  0  0
   -3.5371    0.6027   -0.1388 C   0  0  0  0  0  0  0  0  0  0  0  0
   -4.1137   -0.5510    0.4103 C   0  0  0  0  0  0  0  0  0  0  0  0
   -3.3258   -1.6724    0.6779 C   0  0  0  0  0  0  0  0  0  0  0  0
   -1.9581   -1.6619    0.3844 C   0  0  0  0  0  0  0  0  0  0  0  0
   -1.1745   -2.8154    0.6829 N   0  0  0  0  0  1  0  0  0  0  0  0
   -1.3714   -0.5205   -0.2003 C   0  0  0  0  0  0  0  0  0  0  0  0
    0.1053   -0.4692   -0.5075 C   0  0  0  0  0  0  0  0  0  0  0  0
    0.8948    0.0008    0.7180 C   0  0  0  0  0  0  0  0  0  0  0  0
    2.3675    0.0492    0.4119 C   0  0  0  0  0  0  0  0  0  0  0  0
    2.9425    1.2143   -0.1230 C   0  0  0  0  0  0  0  0  0  0  0  0
    4.3047    1.2465   -0.4376 C   0  0  0  0  0  0  0  0  0  0  0  0
    5.0986    0.1151   -0.2301 C   0  0  0  0  0  0  0  0  0  0  0  0
    4.5308   -1.0520    0.2885 C   0  0  0  0  0  0  0  0  0  0  0  0
    3.1690   -1.0885    0.6045 C   0  0  0  0  0  0  0  0  0  0  0  0
   -2.1694    0.6091   -0.4517 C   0  0  0  0  0  0  0  0  0  0  0  0
   -3.7993    2.7336   -0.3596 H   0  0  0  0  0  0  0  0  0  0  0  0
   -5.2484    1.8617    0.2479 H   0  0  0  0  0  0  0  0  0  0  0  0
   -4.7737    1.7128   -1.4908 H   0  0  0  0  0  0  0  0  0  0  0  0
   -5.1724   -0.5806    0.6369 H   0  0  0  0  0  0  0  0  0  0  0  0
   -3.7805   -2.5523    1.1157 H   0  0  0  0  0  0  0  0  0  0  0  0
    0.4645   -1.4715   -0.8281 H   0  0  0  0  0  0  0  0  0  0  0  0
    0.2905    0.2251   -1.3570 H   0  0  0  0  0  0  0  0  0  0  0  0
    0.5410    1.0093    1.0269 H   0  0  0  0  0  0  0  0  0  0  0  0
    0.7115   -0.6889    1.5713 H   0  0  0  0  0  0  0  0  0  0  0  0
    2.3362    2.0946   -0.2973 H   0  0  0  0  0  0  0  0  0  0  0  0
    4.7441    2.1475   -0.8456 H   0  0  0  0  0  0  0  0  0  0  0  0
    6.1525    0.1413   -0.4753 H   0  0  0  0  0  0  0  0  0  0  0  0
    5.1452   -1.9297    0.4424 H   0  0  0  0  0  0  0  0  0  0  0  0
    2.7391   -2.0019    0.9968 H   0  0  0  0  0  0  0  0  0  0  0  0
   -1.7245    1.4953   -0.8894 H   0  0  0  0  0  0  0  0  0  0  0  0
  1  2  1  0
  2  3  1  0
  3  4  2  0
  4  5  1  0
  5  6  1  0
  5  7  2  0
  7  8  1  0
  8  9  1  0
  9 10  1  0
 10 11  2  0
 11 12  1  0
 12 13  2  0
 13 14  1  0
 14 15  2  0
  7 16  1  0
 15 10  1  0
 16  2  2  0
  1 17  1  0
  1 18  1  0
  1 19  1  0
  3 20  1  0
  4 21  1  0
  8 22  1  0
  8 23  1  0
  9 24  1  0
  9 25  1  0
 11 26  1  0
 12 27  1  0
 13 28  1  0
 14 29  1  0
 15 30  1  0
 16 31  1  0
M  RAD  1   6   3
M  END
$$$$
