
     RDKit          3D

 31 32  0  0  0  0  0  0  0  0999 V2000
    2.8223   -1.6959   -0.7223 C   0  0  0  0  0  0  0  0  0  0  0  0
    2.2405   -0.8158    0.3438 C   0  0  0  0  0  0  0  0  0  0  0  0
    2.4435   -1.1166    1.6977 C   0  0  0  0  0  0  0  0  0  0  0  0
    1.8572   -0.3274    2.6894 C   0  0  0  0  0  0  0  0  0  0  0  0
    1.0513    0.7618    2.3420 C   0  0  0  0  0  0  0  0  0  0  0  0
    0.4502    1.5393    3.3752 N   0  0  0  0  0  1  0  0  0  0  0  0
    0.8317    1.0713    0.9840 C   0  0  0  0  0  0  0  0  0  0  0  0
   -0.0879    2.1996    0.5757 C   0  0  0  0  0  0  0  0  0  0  0  0
   -1.5624    1.7715    0.6009 C   0  0  0  0  0  0  0  0  0  0  0  0
   -1.8453    0.6814   -0.4015 C   0  0  0  0  0  0  0  0  0  0  0  0
   -1.8612   -0.6657   -0.0007 C   0  0  0  0  0  0  0  0  0  0  0  0
   -2.0691   -1.6781   -0.9423 C   0  0  0  0  0  0  0  0  0  0  0  0
   -2.2591   -1.3544   -2.2884 C   0  0  0  0  0  0  0  0  0  0  0  0
   -2.2386   -0.0176   -2.6958 C   0  0  0  0  0  0  0  0  0  0  0  0
   -2.0287    0.9980   -1.7578 C   0  0  0  0  0  0  0  0  0  0  0  0
    1.4237    0.2688   -0.0072 C   0  0  0  0  0  0  0  0  0  0  0  0
    3.7597   -2.1759   -0.3689 H   0  0  0  0  0  0  0  0  0  0  0  0
    3.0619   -1.1024   -1.6303 H   0  0  0  0  0  0  0  0  0  0  0  0
    2.0890   -2.4855   -0.9889 H   0  0  0  0  0  0  0  0  0  0  0  0
    3.0520   -1.9649    1.9860 H   0  0  0  0  0  0  0  0  0  0  0  0
    2.0222   -0.5701    3.7318 H   0  0  0  0  0  0  0  0  0  0  0  0
    0.1760    2.5661   -0.4409 H   0  0  0  0  0  0  0  0  0  0  0  0
    0.0503    3.0623    1.2623 H   0  0  0  0  0  0  0  0  0  0  0  0
   -1.8411    1.4393    1.6249 H   0  0  0  0  0  0  0  0  0  0  0  0
   -2.1959    2.6552    0.3691 H   0  0  0  0  0  0  0  0  0  0  0  0
   -1.7002   -0.9315    1.0368 H   0  0  0  0  0  0  0  0  0  0  0  0
   -2.0778   -2.7140   -0.6289 H   0  0  0  0  0  0  0  0  0  0  0  0
   -2.4183   -2.1394   -3.0163 H   0  0  0  0  0  0  0  0  0  0  0  0
   -2.3800    0.2314   -3.7395 H   0  0  0  0  0  0  0  0  0  0  0  0
   -2.0019    2.0291   -2.0877 H   0  0  0  0  0  0  0  0  0  0  0  0
    1.2359    0.4799   -1.0536 H   0  0  0  0  0  0  0  0  0  0  0  0
  1  2  1  0
  2  3  1  0
  3  4  2  0
  4  5  1  0
  5  6  1  0
  5  7  2  0
  7  8  1  0
  8  9  1  0
  9 10  1  0
 10 11  2  0
 11 12  1  0
 12 13  2  0
 13 14  1  0
 14 15  2  0
  7 16  1  0
 15 10  1  0
 16  2  2  0
  1 17  1  0
  1 18  1  0
  1 19  1  0
  3 20  1  0
  4 21  1  0
  8 22  1  0
  8 23  1  0
  9 24  1  0
  9 25  1  0
 11 26  1  0
 12 27  1  0
 13 28  1  0
 14 29  1  0
 15 30  1  0
 16 31  1  0
M  RAD  1   6   3
M  END
$$$$
