
     RDKit          3D

 31 32  0  0  0  0  0  0  0  0999 V2000
   -2.4764    2.1472    0.7829 C   0  0  0  0  0  0  0  0  0  0  0  0
   -2.2726    0.7369    0.3148 C   0  0  0  0  0  0  0  0  0  0  0  0
   -3.0526   -0.3023    0.8406 C   0  0  0  0  0  0  0  0  0  0  0  0
   -2.8264   -1.6220    0.4438 C   0  0  0  0  0  0  0  0  0  0  0  0
   -1.8113   -1.9212   -0.4709 C   0  0  0  0  0  0  0  0  0  0  0  0
   -1.5902   -3.2796   -0.8442 N   0  0  0  0  0  1  0  0  0  0  0  0
   -1.0135   -0.8869   -1.0018 C   0  0  0  0  0  0  0  0  0  0  0  0
    0.1344   -1.1846   -1.9394 C   0  0  0  0  0  0  0  0  0  0  0  0
    1.3964   -1.6153   -1.1779 C   0  0  0  0  0  0  0  0  0  0  0  0
    1.9181   -0.5127   -0.2916 C   0  0  0  0  0  0  0  0  0  0  0  0
    1.5876   -0.4826    1.0742 C   0  0  0  0  0  0  0  0  0  0  0  0
    2.0269    0.5705    1.8819 C   0  0  0  0  0  0  0  0  0  0  0  0
    2.7951    1.6009    1.3330 C   0  0  0  0  0  0  0  0  0  0  0  0
    3.1227    1.5814   -0.0255 C   0  0  0  0  0  0  0  0  0  0  0  0
    2.6834    0.5312   -0.8375 C   0  0  0  0  0  0  0  0  0  0  0  0
   -1.2469    0.4382   -0.5937 C   0  0  0  0  0  0  0  0  0  0  0  0
   -3.5312    2.3118    1.0903 H   0  0  0  0  0  0  0  0  0  0  0  0
   -2.2398    2.8661   -0.0303 H   0  0  0  0  0  0  0  0  0  0  0  0
   -1.8111    2.3478    1.6485 H   0  0  0  0  0  0  0  0  0  0  0  0
   -3.8332   -0.0919    1.5612 H   0  0  0  0  0  0  0  0  0  0  0  0
   -3.4362   -2.4157    0.8570 H   0  0  0  0  0  0  0  0  0  0  0  0
   -0.1573   -1.9936   -2.6433 H   0  0  0  0  0  0  0  0  0  0  0  0
    0.3635   -0.2948   -2.5665 H   0  0  0  0  0  0  0  0  0  0  0  0
    2.1810   -1.8950   -1.9141 H   0  0  0  0  0  0  0  0  0  0  0  0
    1.1822   -2.5269   -0.5782 H   0  0  0  0  0  0  0  0  0  0  0  0
    0.9802   -1.2667    1.5092 H   0  0  0  0  0  0  0  0  0  0  0  0
    1.7676    0.5904    2.9325 H   0  0  0  0  0  0  0  0  0  0  0  0
    3.1330    2.4163    1.9594 H   0  0  0  0  0  0  0  0  0  0  0  0
    3.7127    2.3829   -0.4506 H   0  0  0  0  0  0  0  0  0  0  0  0
    2.9327    0.5339   -1.8914 H   0  0  0  0  0  0  0  0  0  0  0  0
   -0.6190    1.2364   -0.9724 H   0  0  0  0  0  0  0  0  0  0  0  0
  1  2  1  0
  2  3  1  0
  3  4  2  0
  4  5  1  0
  5  6  1  0
  5  7  2  0
  7  8  1  0
  8  9  1  0
  9 10  1  0
 10 11  2  0
 11 12  1  0
 12 13  2  0
 13 14  1  0
 14 15  2  0
  7 16  1  0
 15 10  1  0
 16  2  2  0
  1 17  1  0
  1 18  1  0
  1 19  1  0
  3 20  1  0
  4 21  1  0
  8 22  1  0
  8 23  1  0
  9 24  1  0
  9 25  1  0
 11 26  1  0
 12 27  1  0
 13 28  1  0
 14 29  1  0
 15 30  1  0
 16 31  1  0
M  RAD  1   6   3
M  END
$$$$
