
     RDKit          3D

 31 32  0  0  0  0  0  0  0  0999 V2000
   -4.6503    1.0465    0.2314 C   0  0  0  0  0  0  0  0  0  0  0  0
   -3.5921   -0.0084    0.0972 C   0  0  0  0  0  0  0  0  0  0  0  0
   -3.9370   -1.3657    0.1566 C   0  0  0  0  0  0  0  0  0  0  0  0
   -2.9563   -2.3482    0.0049 C   0  0  0  0  0  0  0  0  0  0  0  0
   -1.6244   -1.9881   -0.2255 C   0  0  0  0  0  0  0  0  0  0  0  0
   -0.6412   -3.0121   -0.3608 N   0  0  0  0  0  1  0  0  0  0  0  0
   -1.2690   -0.6267   -0.3223 C   0  0  0  0  0  0  0  0  0  0  0  0
    0.1626   -0.2051   -0.5471 C   0  0  0  0  0  0  0  0  0  0  0  0
    0.9084   -0.0971    0.7863 C   0  0  0  0  0  0  0  0  0  0  0  0
    2.3365    0.3210    0.5614 C   0  0  0  0  0  0  0  0  0  0  0  0
    3.3305   -0.6457    0.3345 C   0  0  0  0  0  0  0  0  0  0  0  0
    4.6511   -0.2543    0.0929 C   0  0  0  0  0  0  0  0  0  0  0  0
    4.9861    1.1023    0.0664 C   0  0  0  0  0  0  0  0  0  0  0  0
    4.0001    2.0702    0.2773 C   0  0  0  0  0  0  0  0  0  0  0  0
    2.6782    1.6832    0.5192 C   0  0  0  0  0  0  0  0  0  0  0  0
   -2.2603    0.3554   -0.1528 C   0  0  0  0  0  0  0  0  0  0  0  0
   -5.4782    0.6920    0.8817 H   0  0  0  0  0  0  0  0  0  0  0  0
   -5.0572    1.2906   -0.7720 H   0  0  0  0  0  0  0  0  0  0  0  0
   -4.2285    1.9683    0.6857 H   0  0  0  0  0  0  0  0  0  0  0  0
   -4.9643   -1.6638    0.3265 H   0  0  0  0  0  0  0  0  0  0  0  0
   -3.2333   -3.3932    0.0674 H   0  0  0  0  0  0  0  0  0  0  0  0
    0.6765   -0.9344   -1.2108 H   0  0  0  0  0  0  0  0  0  0  0  0
    0.1895    0.7776   -1.0682 H   0  0  0  0  0  0  0  0  0  0  0  0
    0.8827   -1.0767    1.3127 H   0  0  0  0  0  0  0  0  0  0  0  0
    0.3981    0.6432    1.4417 H   0  0  0  0  0  0  0  0  0  0  0  0
    3.0820   -1.6998    0.3431 H   0  0  0  0  0  0  0  0  0  0  0  0
    5.4142   -1.0028   -0.0772 H   0  0  0  0  0  0  0  0  0  0  0  0
    6.0084    1.4036   -0.1220 H   0  0  0  0  0  0  0  0  0  0  0  0
    4.2594    3.1207    0.2498 H   0  0  0  0  0  0  0  0  0  0  0  0
    1.9218    2.4432    0.6717 H   0  0  0  0  0  0  0  0  0  0  0  0
   -1.9941    1.4043   -0.2131 H   0  0  0  0  0  0  0  0  0  0  0  0
  1  2  1  0
  2  3  1  0
  3  4  2  0
  4  5  1  0
  5  6  1  0
  5  7  2  0
  7  8  1  0
  8  9  1  0
  9 10  1  0
 10 11  2  0
 11 12  1  0
 12 13  2  0
 13 14  1  0
 14 15  2  0
  7 16  1  0
 15 10  1  0
 16  2  2  0
  1 17  1  0
  1 18  1  0
  1 19  1  0
  3 20  1  0
  4 21  1  0
  8 22  1  0
  8 23  1  0
  9 24  1  0
  9 25  1  0
 11 26  1  0
 12 27  1  0
 13 28  1  0
 14 29  1  0
 15 30  1  0
 16 31  1  0
M  RAD  1   6   3
M  END
$$$$
