
     RDKit          3D

 31 32  0  0  0  0  0  0  0  0999 V2000
   -4.6089    1.0438    0.6317 C   0  0  0  0  0  0  0  0  0  0  0  0
   -3.5903    0.0972    0.0687 C   0  0  0  0  0  0  0  0  0  0  0  0
   -3.9824   -0.9178   -0.8149 C   0  0  0  0  0  0  0  0  0  0  0  0
   -3.0388   -1.8158   -1.3183 C   0  0  0  0  0  0  0  0  0  0  0  0
   -1.6976   -1.7225   -0.9320 C   0  0  0  0  0  0  0  0  0  0  0  0
   -0.7528   -2.6430   -1.4740 N   0  0  0  0  0  1  0  0  0  0  0  0
   -1.2953   -0.7279   -0.0167 C   0  0  0  0  0  0  0  0  0  0  0  0
    0.1478   -0.5864    0.4019 C   0  0  0  0  0  0  0  0  0  0  0  0
    0.9115    0.2994   -0.5870 C   0  0  0  0  0  0  0  0  0  0  0  0
    2.3510    0.4382   -0.1704 C   0  0  0  0  0  0  0  0  0  0  0  0
    3.3076   -0.4946   -0.6052 C   0  0  0  0  0  0  0  0  0  0  0  0
    4.6385   -0.3834   -0.1906 C   0  0  0  0  0  0  0  0  0  0  0  0
    5.0210    0.6519    0.6669 C   0  0  0  0  0  0  0  0  0  0  0  0
    4.0723    1.5753    1.1149 C   0  0  0  0  0  0  0  0  0  0  0  0
    2.7403    1.4678    0.7028 C   0  0  0  0  0  0  0  0  0  0  0  0
   -2.2492    0.1812    0.4726 C   0  0  0  0  0  0  0  0  0  0  0  0
   -4.1498    2.0334    0.8413 H   0  0  0  0  0  0  0  0  0  0  0  0
   -5.4417    1.1979   -0.0872 H   0  0  0  0  0  0  0  0  0  0  0  0
   -5.0179    0.6269    1.5756 H   0  0  0  0  0  0  0  0  0  0  0  0
   -5.0177   -1.0106   -1.1193 H   0  0  0  0  0  0  0  0  0  0  0  0
   -3.3520   -2.5865   -2.0116 H   0  0  0  0  0  0  0  0  0  0  0  0
    0.6283   -1.5872    0.4635 H   0  0  0  0  0  0  0  0  0  0  0  0
    0.2038   -0.1403    1.4197 H   0  0  0  0  0  0  0  0  0  0  0  0
    0.4350    1.3036   -0.6352 H   0  0  0  0  0  0  0  0  0  0  0  0
    0.8569   -0.1411   -1.6070 H   0  0  0  0  0  0  0  0  0  0  0  0
    3.0220   -1.3068   -1.2622 H   0  0  0  0  0  0  0  0  0  0  0  0
    5.3727   -1.1019   -0.5315 H   0  0  0  0  0  0  0  0  0  0  0  0
    6.0512    0.7358    0.9879 H   0  0  0  0  0  0  0  0  0  0  0  0
    4.3683    2.3726    1.7843 H   0  0  0  0  0  0  0  0  0  0  0  0
    2.0130    2.1841    1.0645 H   0  0  0  0  0  0  0  0  0  0  0  0
   -1.9468    0.9567    1.1667 H   0  0  0  0  0  0  0  0  0  0  0  0
  1  2  1  0
  2  3  1  0
  3  4  2  0
  4  5  1  0
  5  6  1  0
  5  7  2  0
  7  8  1  0
  8  9  1  0
  9 10  1  0
 10 11  2  0
 11 12  1  0
 12 13  2  0
 13 14  1  0
 14 15  2  0
  7 16  1  0
 15 10  1  0
 16  2  2  0
  1 17  1  0
  1 18  1  0
  1 19  1  0
  3 20  1  0
  4 21  1  0
  8 22  1  0
  8 23  1  0
  9 24  1  0
  9 25  1  0
 11 26  1  0
 12 27  1  0
 13 28  1  0
 14 29  1  0
 15 30  1  0
 16 31  1  0
M  RAD  1   6   3
M  END
$$$$
