
     RDKit          3D

 31 32  0  0  0  0  0  0  0  0999 V2000
   -2.1095    2.2094   -1.4710 C   0  0  0  0  0  0  0  0  0  0  0  0
   -2.1293    0.9564   -0.6468 C   0  0  0  0  0  0  0  0  0  0  0  0
   -3.0385    0.8204    0.4113 C   0  0  0  0  0  0  0  0  0  0  0  0
   -3.0206   -0.3238    1.2117 C   0  0  0  0  0  0  0  0  0  0  0  0
   -2.0874   -1.3384    0.9743 C   0  0  0  0  0  0  0  0  0  0  0  0
   -2.0797   -2.4873    1.8188 N   0  0  0  0  0  1  0  0  0  0  0  0
   -1.1614   -1.2114   -0.0814 C   0  0  0  0  0  0  0  0  0  0  0  0
   -0.0973   -2.2580   -0.3212 C   0  0  0  0  0  0  0  0  0  0  0  0
    1.1088   -2.0696    0.6104 C   0  0  0  0  0  0  0  0  0  0  0  0
    1.8124   -0.7606    0.3563 C   0  0  0  0  0  0  0  0  0  0  0  0
    1.5293    0.3641    1.1503 C   0  0  0  0  0  0  0  0  0  0  0  0
    2.1420    1.5908    0.8777 C   0  0  0  0  0  0  0  0  0  0  0  0
    3.0376    1.7047   -0.1890 C   0  0  0  0  0  0  0  0  0  0  0  0
    3.3196    0.5925   -0.9870 C   0  0  0  0  0  0  0  0  0  0  0  0
    2.7073   -0.6358   -0.7193 C   0  0  0  0  0  0  0  0  0  0  0  0
   -1.1852   -0.0542   -0.8796 C   0  0  0  0  0  0  0  0  0  0  0  0
   -1.7929    1.9864   -2.5122 H   0  0  0  0  0  0  0  0  0  0  0  0
   -3.1192    2.6708   -1.5108 H   0  0  0  0  0  0  0  0  0  0  0  0
   -1.3973    2.9336   -1.0233 H   0  0  0  0  0  0  0  0  0  0  0  0
   -3.7586    1.6020    0.6199 H   0  0  0  0  0  0  0  0  0  0  0  0
   -3.7287   -0.4170    2.0256 H   0  0  0  0  0  0  0  0  0  0  0  0
   -0.5250   -3.2708   -0.1593 H   0  0  0  0  0  0  0  0  0  0  0  0
    0.2424   -2.2300   -1.3802 H   0  0  0  0  0  0  0  0  0  0  0  0
    0.7798   -2.1342    1.6707 H   0  0  0  0  0  0  0  0  0  0  0  0
    1.8222   -2.9063    0.4465 H   0  0  0  0  0  0  0  0  0  0  0  0
    0.8257    0.2935    1.9707 H   0  0  0  0  0  0  0  0  0  0  0  0
    1.9186    2.4545    1.4905 H   0  0  0  0  0  0  0  0  0  0  0  0
    3.5098    2.6554   -0.3998 H   0  0  0  0  0  0  0  0  0  0  0  0
    4.0089    0.6834   -1.8165 H   0  0  0  0  0  0  0  0  0  0  0  0
    2.9240   -1.4871   -1.3527 H   0  0  0  0  0  0  0  0  0  0  0  0
   -0.4576    0.0668   -1.6739 H   0  0  0  0  0  0  0  0  0  0  0  0
  1  2  1  0
  2  3  1  0
  3  4  2  0
  4  5  1  0
  5  6  1  0
  5  7  2  0
  7  8  1  0
  8  9  1  0
  9 10  1  0
 10 11  2  0
 11 12  1  0
 12 13  2  0
 13 14  1  0
 14 15  2  0
  7 16  1  0
 15 10  1  0
 16  2  2  0
  1 17  1  0
  1 18  1  0
  1 19  1  0
  3 20  1  0
  4 21  1  0
  8 22  1  0
  8 23  1  0
  9 24  1  0
  9 25  1  0
 11 26  1  0
 12 27  1  0
 13 28  1  0
 14 29  1  0
 15 30  1  0
 16 31  1  0
M  RAD  1   6   3
M  END
$$$$
