
     RDKit          3D

 31 32  0  0  0  0  0  0  0  0999 V2000
   -4.3278    1.6988    1.0558 C   0  0  0  0  0  0  0  0  0  0  0  0
   -3.5120    0.5738    0.4908 C   0  0  0  0  0  0  0  0  0  0  0  0
   -4.1065   -0.6694    0.2338 C   0  0  0  0  0  0  0  0  0  0  0  0
   -3.3540   -1.7087   -0.3172 C   0  0  0  0  0  0  0  0  0  0  0  0
   -2.0056   -1.5141   -0.6345 C   0  0  0  0  0  0  0  0  0  0  0  0
   -1.2571   -2.5978   -1.1815 N   0  0  0  0  0  1  0  0  0  0  0  0
   -1.4036   -0.2580   -0.4137 C   0  0  0  0  0  0  0  0  0  0  0  0
    0.0546   -0.0230   -0.7237 C   0  0  0  0  0  0  0  0  0  0  0  0
    0.9305   -0.4266    0.4661 C   0  0  0  0  0  0  0  0  0  0  0  0
    2.3846   -0.1943    0.1555 C   0  0  0  0  0  0  0  0  0  0  0  0
    3.1460   -1.1991   -0.4648 C   0  0  0  0  0  0  0  0  0  0  0  0
    4.4883   -0.9700   -0.7827 C   0  0  0  0  0  0  0  0  0  0  0  0
    5.0761    0.2646   -0.4932 C   0  0  0  0  0  0  0  0  0  0  0  0
    4.3213    1.2738    0.1110 C   0  0  0  0  0  0  0  0  0  0  0  0
    2.9785    1.0490    0.4306 C   0  0  0  0  0  0  0  0  0  0  0  0
   -2.1648    0.7775    0.1558 C   0  0  0  0  0  0  0  0  0  0  0  0
   -4.7732    2.2851    0.2251 H   0  0  0  0  0  0  0  0  0  0  0  0
   -3.6939    2.3698    1.6740 H   0  0  0  0  0  0  0  0  0  0  0  0
   -5.1431    1.3076    1.7010 H   0  0  0  0  0  0  0  0  0  0  0  0
   -5.1512   -0.8363    0.4657 H   0  0  0  0  0  0  0  0  0  0  0  0
   -3.8212   -2.6688   -0.4974 H   0  0  0  0  0  0  0  0  0  0  0  0
    0.2220    1.0512   -0.9605 H   0  0  0  0  0  0  0  0  0  0  0  0
    0.3518   -0.6005   -1.6262 H   0  0  0  0  0  0  0  0  0  0  0  0
    0.7654   -1.4996    0.7086 H   0  0  0  0  0  0  0  0  0  0  0  0
    0.6382    0.1631    1.3631 H   0  0  0  0  0  0  0  0  0  0  0  0
    2.6996   -2.1567   -0.7029 H   0  0  0  0  0  0  0  0  0  0  0  0
    5.0720   -1.7485   -1.2568 H   0  0  0  0  0  0  0  0  0  0  0  0
    6.1148    0.4407   -0.7412 H   0  0  0  0  0  0  0  0  0  0  0  0
    4.7756    2.2318    0.3286 H   0  0  0  0  0  0  0  0  0  0  0  0
    2.4019    1.8423    0.8900 H   0  0  0  0  0  0  0  0  0  0  0  0
   -1.7072    1.7424    0.3407 H   0  0  0  0  0  0  0  0  0  0  0  0
  1  2  1  0
  2  3  1  0
  3  4  2  0
  4  5  1  0
  5  6  1  0
  5  7  2  0
  7  8  1  0
  8  9  1  0
  9 10  1  0
 10 11  2  0
 11 12  1  0
 12 13  2  0
 13 14  1  0
 14 15  2  0
  7 16  1  0
 15 10  1  0
 16  2  2  0
  1 17  1  0
  1 18  1  0
  1 19  1  0
  3 20  1  0
  4 21  1  0
  8 22  1  0
  8 23  1  0
  9 24  1  0
  9 25  1  0
 11 26  1  0
 12 27  1  0
 13 28  1  0
 14 29  1  0
 15 30  1  0
 16 31  1  0
M  RAD  1   6   3
M  END
$$$$
