
     RDKit          3D

 31 32  0  0  0  0  0  0  0  0999 V2000
   -4.3561    1.1720    1.5785 C   0  0  0  0  0  0  0  0  0  0  0  0
   -3.5201    0.3061    0.6830 C   0  0  0  0  0  0  0  0  0  0  0  0
   -4.0893   -0.8024    0.0411 C   0  0  0  0  0  0  0  0  0  0  0  0
   -3.3183   -1.5930   -0.8137 C   0  0  0  0  0  0  0  0  0  0  0  0
   -1.9767   -1.2764   -1.0516 C   0  0  0  0  0  0  0  0  0  0  0  0
   -1.2088   -2.1104   -1.9167 N   0  0  0  0  0  1  0  0  0  0  0  0
   -1.4006   -0.1438   -0.4397 C   0  0  0  0  0  0  0  0  0  0  0  0
    0.0500    0.2113   -0.6577 C   0  0  0  0  0  0  0  0  0  0  0  0
    0.9428   -0.5321    0.3404 C   0  0  0  0  0  0  0  0  0  0  0  0
    2.3893   -0.1795    0.1210 C   0  0  0  0  0  0  0  0  0  0  0  0
    2.9580    0.9233    0.7802 C   0  0  0  0  0  0  0  0  0  0  0  0
    4.2933    1.2692    0.5498 C   0  0  0  0  0  0  0  0  0  0  0  0
    5.0656    0.5242   -0.3457 C   0  0  0  0  0  0  0  0  0  0  0  0
    4.5027   -0.5656   -1.0157 C   0  0  0  0  0  0  0  0  0  0  0  0
    3.1679   -0.9149   -0.7883 C   0  0  0  0  0  0  0  0  0  0  0  0
   -2.1800    0.6370    0.4313 C   0  0  0  0  0  0  0  0  0  0  0  0
   -5.1582    0.5762    2.0640 H   0  0  0  0  0  0  0  0  0  0  0  0
   -4.8198    1.9832    0.9793 H   0  0  0  0  0  0  0  0  0  0  0  0
   -3.7326    1.6238    2.3792 H   0  0  0  0  0  0  0  0  0  0  0  0
   -5.1285   -1.0586    0.2069 H   0  0  0  0  0  0  0  0  0  0  0  0
   -3.7659   -2.4552   -1.2922 H   0  0  0  0  0  0  0  0  0  0  0  0
    0.3533   -0.0397   -1.6975 H   0  0  0  0  0  0  0  0  0  0  0  0
    0.1924    1.3083   -0.5377 H   0  0  0  0  0  0  0  0  0  0  0  0
    0.8027   -1.6297    0.2261 H   0  0  0  0  0  0  0  0  0  0  0  0
    0.6441   -0.2677    1.3790 H   0  0  0  0  0  0  0  0  0  0  0  0
    2.3676    1.5143    1.4694 H   0  0  0  0  0  0  0  0  0  0  0  0
    4.7283    2.1171    1.0631 H   0  0  0  0  0  0  0  0  0  0  0  0
    6.0985    0.7941   -0.5238 H   0  0  0  0  0  0  0  0  0  0  0  0
    5.0998   -1.1376   -1.7141 H   0  0  0  0  0  0  0  0  0  0  0  0
    2.7407   -1.7557   -1.3209 H   0  0  0  0  0  0  0  0  0  0  0  0
   -1.7421    1.5021    0.9158 H   0  0  0  0  0  0  0  0  0  0  0  0
  1  2  1  0
  2  3  1  0
  3  4  2  0
  4  5  1  0
  5  6  1  0
  5  7  2  0
  7  8  1  0
  8  9  1  0
  9 10  1  0
 10 11  2  0
 11 12  1  0
 12 13  2  0
 13 14  1  0
 14 15  2  0
  7 16  1  0
 15 10  1  0
 16  2  2  0
  1 17  1  0
  1 18  1  0
  1 19  1  0
  3 20  1  0
  4 21  1  0
  8 22  1  0
  8 23  1  0
  9 24  1  0
  9 25  1  0
 11 26  1  0
 12 27  1  0
 13 28  1  0
 14 29  1  0
 15 30  1  0
 16 31  1  0
M  RAD  1   6   3
M  END
$$$$
