
     RDKit          3D

 31 32  0  0  0  0  0  0  0  0999 V2000
   -4.6742    0.7395   -0.5550 C   0  0  0  0  0  0  0  0  0  0  0  0
   -3.5879    0.0299    0.1981 C   0  0  0  0  0  0  0  0  0  0  0  0
   -3.9029   -1.0291    1.0607 C   0  0  0  0  0  0  0  0  0  0  0  0
   -2.8952   -1.6723    1.7824 C   0  0  0  0  0  0  0  0  0  0  0  0
   -1.5652   -1.2549    1.6653 C   0  0  0  0  0  0  0  0  0  0  0  0
   -0.5545   -1.9402    2.4019 N   0  0  0  0  0  1  0  0  0  0  0  0
   -1.2386   -0.1683    0.8277 C   0  0  0  0  0  0  0  0  0  0  0  0
    0.1894    0.2912    0.6620 C   0  0  0  0  0  0  0  0  0  0  0  0
    0.8885   -0.5088   -0.4412 C   0  0  0  0  0  0  0  0  0  0  0  0
    2.3131   -0.0519   -0.6044 C   0  0  0  0  0  0  0  0  0  0  0  0
    3.3361   -0.6338    0.1629 C   0  0  0  0  0  0  0  0  0  0  0  0
    4.6545   -0.1856    0.0342 C   0  0  0  0  0  0  0  0  0  0  0  0
    4.9585    0.8513   -0.8524 C   0  0  0  0  0  0  0  0  0  0  0  0
    3.9439    1.4446   -1.6087 C   0  0  0  0  0  0  0  0  0  0  0  0
    2.6242    0.9994   -1.4830 C   0  0  0  0  0  0  0  0  0  0  0  0
   -2.2575    0.4629    0.0933 C   0  0  0  0  0  0  0  0  0  0  0  0
   -4.2891    1.1321   -1.5201 H   0  0  0  0  0  0  0  0  0  0  0  0
   -5.0537    1.5857    0.0549 H   0  0  0  0  0  0  0  0  0  0  0  0
   -5.5145    0.0477   -0.7774 H   0  0  0  0  0  0  0  0  0  0  0  0
   -4.9280   -1.3611    1.1703 H   0  0  0  0  0  0  0  0  0  0  0  0
   -3.1497   -2.4987    2.4344 H   0  0  0  0  0  0  0  0  0  0  0  0
    0.7416    0.1776    1.6204 H   0  0  0  0  0  0  0  0  0  0  0  0
    0.2105    1.3737    0.4058 H   0  0  0  0  0  0  0  0  0  0  0  0
    0.3400   -0.3815   -1.4008 H   0  0  0  0  0  0  0  0  0  0  0  0
    0.8684   -1.5925   -0.1910 H   0  0  0  0  0  0  0  0  0  0  0  0
    3.1121   -1.4316    0.8603 H   0  0  0  0  0  0  0  0  0  0  0  0
    5.4399   -0.6397    0.6243 H   0  0  0  0  0  0  0  0  0  0  0  0
    5.9792    1.1980   -0.9498 H   0  0  0  0  0  0  0  0  0  0  0  0
    4.1795    2.2521   -2.2899 H   0  0  0  0  0  0  0  0  0  0  0  0
    1.8457    1.4738   -2.0677 H   0  0  0  0  0  0  0  0  0  0  0  0
   -2.0140    1.2908   -0.5625 H   0  0  0  0  0  0  0  0  0  0  0  0
  1  2  1  0
  2  3  1  0
  3  4  2  0
  4  5  1  0
  5  6  1  0
  5  7  2  0
  7  8  1  0
  8  9  1  0
  9 10  1  0
 10 11  2  0
 11 12  1  0
 12 13  2  0
 13 14  1  0
 14 15  2  0
  7 16  1  0
 15 10  1  0
 16  2  2  0
  1 17  1  0
  1 18  1  0
  1 19  1  0
  3 20  1  0
  4 21  1  0
  8 22  1  0
  8 23  1  0
  9 24  1  0
  9 25  1  0
 11 26  1  0
 12 27  1  0
 13 28  1  0
 14 29  1  0
 15 30  1  0
 16 31  1  0
M  RAD  1   6   3
M  END
$$$$
