
     RDKit          3D

 31 32  0  0  0  0  0  0  0  0999 V2000
   -4.3982   -1.8160   -0.3226 C   0  0  0  0  0  0  0  0  0  0  0  0
   -3.5376   -0.6240   -0.0241 C   0  0  0  0  0  0  0  0  0  0  0  0
   -4.1145    0.6460    0.1150 C   0  0  0  0  0  0  0  0  0  0  0  0
   -3.3173    1.7513    0.4195 C   0  0  0  0  0  0  0  0  0  0  0  0
   -1.9394    1.5994    0.6062 C   0  0  0  0  0  0  0  0  0  0  0  0
   -1.1472    2.7480    0.9006 N   0  0  0  0  0  1  0  0  0  0  0  0
   -1.3508    0.3218    0.5036 C   0  0  0  0  0  0  0  0  0  0  0  0
    0.1359    0.1283    0.6766 C   0  0  0  0  0  0  0  0  0  0  0  0
    0.8664    0.3498   -0.6512 C   0  0  0  0  0  0  0  0  0  0  0  0
    2.3491    0.1590   -0.4777 C   0  0  0  0  0  0  0  0  0  0  0  0
    3.1633    1.2403   -0.1010 C   0  0  0  0  0  0  0  0  0  0  0  0
    4.5358    1.0543    0.0920 C   0  0  0  0  0  0  0  0  0  0  0  0
    5.1022   -0.2118   -0.0796 C   0  0  0  0  0  0  0  0  0  0  0  0
    4.2963   -1.2952   -0.4405 C   0  0  0  0  0  0  0  0  0  0  0  0
    2.9233   -1.1136   -0.6345 C   0  0  0  0  0  0  0  0  0  0  0  0
   -2.1588   -0.7824    0.1815 C   0  0  0  0  0  0  0  0  0  0  0  0
   -3.8302   -2.5728   -0.9045 H   0  0  0  0  0  0  0  0  0  0  0  0
   -5.2861   -1.5196   -0.9209 H   0  0  0  0  0  0  0  0  0  0  0  0
   -4.7394   -2.2725    0.6298 H   0  0  0  0  0  0  0  0  0  0  0  0
   -5.1807    0.7818   -0.0182 H   0  0  0  0  0  0  0  0  0  0  0  0
   -3.7730    2.7295    0.5098 H   0  0  0  0  0  0  0  0  0  0  0  0
    0.3423   -0.9005    1.0467 H   0  0  0  0  0  0  0  0  0  0  0  0
    0.5262    0.8301    1.4456 H   0  0  0  0  0  0  0  0  0  0  0  0
    0.6617    1.3766   -1.0270 H   0  0  0  0  0  0  0  0  0  0  0  0
    0.4817   -0.3634   -1.4136 H   0  0  0  0  0  0  0  0  0  0  0  0
    2.7350    2.2245    0.0443 H   0  0  0  0  0  0  0  0  0  0  0  0
    5.1598    1.8912    0.3781 H   0  0  0  0  0  0  0  0  0  0  0  0
    6.1644   -0.3544    0.0715 H   0  0  0  0  0  0  0  0  0  0  0  0
    4.7349   -2.2767   -0.5665 H   0  0  0  0  0  0  0  0  0  0  0  0
    2.3082   -1.9631   -0.9048 H   0  0  0  0  0  0  0  0  0  0  0  0
   -1.7131   -1.7660    0.0882 H   0  0  0  0  0  0  0  0  0  0  0  0
  1  2  1  0
  2  3  1  0
  3  4  2  0
  4  5  1  0
  5  6  1  0
  5  7  2  0
  7  8  1  0
  8  9  1  0
  9 10  1  0
 10 11  2  0
 11 12  1  0
 12 13  2  0
 13 14  1  0
 14 15  2  0
  7 16  1  0
 15 10  1  0
 16  2  2  0
  1 17  1  0
  1 18  1  0
  1 19  1  0
  3 20  1  0
  4 21  1  0
  8 22  1  0
  8 23  1  0
  9 24  1  0
  9 25  1  0
 11 26  1  0
 12 27  1  0
 13 28  1  0
 14 29  1  0
 15 30  1  0
 16 31  1  0
M  RAD  1   6   3
M  END
$$$$
