
     RDKit          3D

 31 32  0  0  0  0  0  0  0  0999 V2000
   -2.5634    1.3951   -1.6849 C   0  0  0  0  0  0  0  0  0  0  0  0
   -2.3025    0.4368   -0.5609 C   0  0  0  0  0  0  0  0  0  0  0  0
   -3.0866    0.4784    0.6002 C   0  0  0  0  0  0  0  0  0  0  0  0
   -2.8093   -0.3781    1.6676 C   0  0  0  0  0  0  0  0  0  0  0  0
   -1.7390   -1.2757    1.5944 C   0  0  0  0  0  0  0  0  0  0  0  0
   -1.4673   -2.1257    2.7066 N   0  0  0  0  0  1  0  0  0  0  0  0
   -0.9367   -1.3229    0.4359 C   0  0  0  0  0  0  0  0  0  0  0  0
    0.2674   -2.2332    0.3525 C   0  0  0  0  0  0  0  0  0  0  0  0
    1.4950   -1.6203    1.0421 C   0  0  0  0  0  0  0  0  0  0  0  0
    1.9423   -0.3508    0.3626 C   0  0  0  0  0  0  0  0  0  0  0  0
    2.7128   -0.4102   -0.8105 C   0  0  0  0  0  0  0  0  0  0  0  0
    3.0831    0.7659   -1.4700 C   0  0  0  0  0  0  0  0  0  0  0  0
    2.6809    2.0069   -0.9684 C   0  0  0  0  0  0  0  0  0  0  0  0
    1.9071    2.0740    0.1933 C   0  0  0  0  0  0  0  0  0  0  0  0
    1.5366    0.9007    0.8572 C   0  0  0  0  0  0  0  0  0  0  0  0
   -1.2219   -0.4542   -0.6323 C   0  0  0  0  0  0  0  0  0  0  0  0
   -3.6369    1.6788   -1.7196 H   0  0  0  0  0  0  0  0  0  0  0  0
   -2.2987    0.9338   -2.6601 H   0  0  0  0  0  0  0  0  0  0  0  0
   -1.9513    2.3095   -1.5389 H   0  0  0  0  0  0  0  0  0  0  0  0
   -3.9102    1.1771    0.6813 H   0  0  0  0  0  0  0  0  0  0  0  0
   -3.4230   -0.3364    2.5589 H   0  0  0  0  0  0  0  0  0  0  0  0
    0.5106   -2.4580   -0.7095 H   0  0  0  0  0  0  0  0  0  0  0  0
    0.0331   -3.2086    0.8305 H   0  0  0  0  0  0  0  0  0  0  0  0
    1.2687   -1.4281    2.1137 H   0  0  0  0  0  0  0  0  0  0  0  0
    2.3250   -2.3596    1.0191 H   0  0  0  0  0  0  0  0  0  0  0  0
    3.0196   -1.3663   -1.2161 H   0  0  0  0  0  0  0  0  0  0  0  0
    3.6774    0.7150   -2.3731 H   0  0  0  0  0  0  0  0  0  0  0  0
    2.9655    2.9160   -1.4821 H   0  0  0  0  0  0  0  0  0  0  0  0
    1.5900    3.0351    0.5768 H   0  0  0  0  0  0  0  0  0  0  0  0
    0.9240    0.9663    1.7480 H   0  0  0  0  0  0  0  0  0  0  0  0
   -0.5923   -0.4612   -1.5145 H   0  0  0  0  0  0  0  0  0  0  0  0
  1  2  1  0
  2  3  1  0
  3  4  2  0
  4  5  1  0
  5  6  1  0
  5  7  2  0
  7  8  1  0
  8  9  1  0
  9 10  1  0
 10 11  2  0
 11 12  1  0
 12 13  2  0
 13 14  1  0
 14 15  2  0
  7 16  1  0
 15 10  1  0
 16  2  2  0
  1 17  1  0
  1 18  1  0
  1 19  1  0
  3 20  1  0
  4 21  1  0
  8 22  1  0
  8 23  1  0
  9 24  1  0
  9 25  1  0
 11 26  1  0
 12 27  1  0
 13 28  1  0
 14 29  1  0
 15 30  1  0
 16 31  1  0
M  RAD  1   6   3
M  END
$$$$
