
     RDKit          3D

 31 32  0  0  0  0  0  0  0  0999 V2000
   -2.6502    2.0811   -0.2387 C   0  0  0  0  0  0  0  0  0  0  0  0
   -2.3210    0.6238   -0.3716 C   0  0  0  0  0  0  0  0  0  0  0  0
   -2.9639   -0.1609   -1.3389 C   0  0  0  0  0  0  0  0  0  0  0  0
   -2.6188   -1.5046   -1.4978 C   0  0  0  0  0  0  0  0  0  0  0  0
   -1.6196   -2.0768   -0.7035 C   0  0  0  0  0  0  0  0  0  0  0  0
   -1.2745   -3.4464   -0.9000 N   0  0  0  0  0  1  0  0  0  0  0  0
   -0.9587   -1.2973    0.2679 C   0  0  0  0  0  0  0  0  0  0  0  0
    0.1713   -1.8673    1.0947 C   0  0  0  0  0  0  0  0  0  0  0  0
    1.5039   -1.8454    0.3322 C   0  0  0  0  0  0  0  0  0  0  0  0
    1.9463   -0.4382    0.0200 C   0  0  0  0  0  0  0  0  0  0  0  0
    1.6755    0.1294   -1.2370 C   0  0  0  0  0  0  0  0  0  0  0  0
    2.0377    1.4528   -1.5049 C   0  0  0  0  0  0  0  0  0  0  0  0
    2.6688    2.2191   -0.5212 C   0  0  0  0  0  0  0  0  0  0  0  0
    2.9360    1.6639    0.7333 C   0  0  0  0  0  0  0  0  0  0  0  0
    2.5733    0.3413    1.0062 C   0  0  0  0  0  0  0  0  0  0  0  0
   -1.3110    0.0556    0.4181 C   0  0  0  0  0  0  0  0  0  0  0  0
   -2.5263    2.4145    0.8137 H   0  0  0  0  0  0  0  0  0  0  0  0
   -3.7016    2.2766   -0.5391 H   0  0  0  0  0  0  0  0  0  0  0  0
   -1.9716    2.6728   -0.8882 H   0  0  0  0  0  0  0  0  0  0  0  0
   -3.7294    0.2684   -1.9734 H   0  0  0  0  0  0  0  0  0  0  0  0
   -3.1233   -2.1003   -2.2483 H   0  0  0  0  0  0  0  0  0  0  0  0
    0.2780   -1.3024    2.0471 H   0  0  0  0  0  0  0  0  0  0  0  0
   -0.0652   -2.9150    1.3801 H   0  0  0  0  0  0  0  0  0  0  0  0
    2.2801   -2.3437    0.9528 H   0  0  0  0  0  0  0  0  0  0  0  0
    1.4131   -2.4403   -0.6030 H   0  0  0  0  0  0  0  0  0  0  0  0
    1.1734   -0.4484   -2.0033 H   0  0  0  0  0  0  0  0  0  0  0  0
    1.8246    1.8860   -2.4735 H   0  0  0  0  0  0  0  0  0  0  0  0
    2.9471    3.2440   -0.7296 H   0  0  0  0  0  0  0  0  0  0  0  0
    3.4195    2.2602    1.4962 H   0  0  0  0  0  0  0  0  0  0  0  0
    2.7740   -0.0736    1.9863 H   0  0  0  0  0  0  0  0  0  0  0  0
   -0.7875    0.6710    1.1406 H   0  0  0  0  0  0  0  0  0  0  0  0
  1  2  1  0
  2  3  1  0
  3  4  2  0
  4  5  1  0
  5  6  1  0
  5  7  2  0
  7  8  1  0
  8  9  1  0
  9 10  1  0
 10 11  2  0
 11 12  1  0
 12 13  2  0
 13 14  1  0
 14 15  2  0
  7 16  1  0
 15 10  1  0
 16  2  2  0
  1 17  1  0
  1 18  1  0
  1 19  1  0
  3 20  1  0
  4 21  1  0
  8 22  1  0
  8 23  1  0
  9 24  1  0
  9 25  1  0
 11 26  1  0
 12 27  1  0
 13 28  1  0
 14 29  1  0
 15 30  1  0
 16 31  1  0
M  RAD  1   6   3
M  END
$$$$
