
     RDKit          3D

 31 32  0  0  0  0  0  0  0  0999 V2000
   -4.6355   -1.0625   -0.4482 C   0  0  0  0  0  0  0  0  0  0  0  0
   -3.5891   -0.0897    0.0091 C   0  0  0  0  0  0  0  0  0  0  0  0
   -3.9351    0.9734    0.8546 C   0  0  0  0  0  0  0  0  0  0  0  0
   -2.9667    1.8948    1.2589 C   0  0  0  0  0  0  0  0  0  0  0  0
   -1.6471    1.7763    0.8102 C   0  0  0  0  0  0  0  0  0  0  0  0
   -0.6755    2.7221    1.2518 N   0  0  0  0  0  1  0  0  0  0  0  0
   -1.2925    0.7317   -0.0685 C   0  0  0  0  0  0  0  0  0  0  0  0
    0.1272    0.5630   -0.5520 C   0  0  0  0  0  0  0  0  0  0  0  0
    0.9404   -0.2696    0.4436 C   0  0  0  0  0  0  0  0  0  0  0  0
    2.3565   -0.4355   -0.0378 C   0  0  0  0  0  0  0  0  0  0  0  0
    2.7002   -1.5126   -0.8719 C   0  0  0  0  0  0  0  0  0  0  0  0
    4.0093   -1.6467   -1.3451 C   0  0  0  0  0  0  0  0  0  0  0  0
    4.9800   -0.7031   -0.9977 C   0  0  0  0  0  0  0  0  0  0  0  0
    4.6423    0.3788   -0.1798 C   0  0  0  0  0  0  0  0  0  0  0  0
    3.3344    0.5167    0.2956 C   0  0  0  0  0  0  0  0  0  0  0  0
   -2.2706   -0.1999   -0.4576 C   0  0  0  0  0  0  0  0  0  0  0  0
   -5.0923   -0.6967   -1.3914 H   0  0  0  0  0  0  0  0  0  0  0  0
   -4.1880   -2.0635   -0.6265 H   0  0  0  0  0  0  0  0  0  0  0  0
   -5.4304   -1.1744    0.3198 H   0  0  0  0  0  0  0  0  0  0  0  0
   -4.9534    1.0860    1.2060 H   0  0  0  0  0  0  0  0  0  0  0  0
   -3.2437    2.7032    1.9240 H   0  0  0  0  0  0  0  0  0  0  0  0
    0.1308    0.0617   -1.5453 H   0  0  0  0  0  0  0  0  0  0  0  0
    0.6041    1.5575   -0.6929 H   0  0  0  0  0  0  0  0  0  0  0  0
    0.9383    0.2263    1.4394 H   0  0  0  0  0  0  0  0  0  0  0  0
    0.4666   -1.2681    0.5713 H   0  0  0  0  0  0  0  0  0  0  0  0
    1.9551   -2.2454   -1.1561 H   0  0  0  0  0  0  0  0  0  0  0  0
    4.2704   -2.4804   -1.9841 H   0  0  0  0  0  0  0  0  0  0  0  0
    5.9924   -0.8076   -1.3659 H   0  0  0  0  0  0  0  0  0  0  0  0
    5.3932    1.1126    0.0830 H   0  0  0  0  0  0  0  0  0  0  0  0
    3.0831    1.3647    0.9208 H   0  0  0  0  0  0  0  0  0  0  0  0
   -2.0043   -1.0132   -1.1228 H   0  0  0  0  0  0  0  0  0  0  0  0
  1  2  1  0
  2  3  1  0
  3  4  2  0
  4  5  1  0
  5  6  1  0
  5  7  2  0
  7  8  1  0
  8  9  1  0
  9 10  1  0
 10 11  2  0
 11 12  1  0
 12 13  2  0
 13 14  1  0
 14 15  2  0
  7 16  1  0
 15 10  1  0
 16  2  2  0
  1 17  1  0
  1 18  1  0
  1 19  1  0
  3 20  1  0
  4 21  1  0
  8 22  1  0
  8 23  1  0
  9 24  1  0
  9 25  1  0
 11 26  1  0
 12 27  1  0
 13 28  1  0
 14 29  1  0
 15 30  1  0
 16 31  1  0
M  RAD  1   6   3
M  END
$$$$
