
     RDKit          3D

 28 28  0  0  0  0  0  0  0  0999 V2000
   -2.2774    1.5207    1.2354 C   0  0  0  0  0  0  0  0  0  0  0  0
   -1.8142    0.7484    0.0781 N   0  0  0  0  0  0  0  0  0  0  0  0
   -2.1000   -0.6880   -0.0048 C   0  0  0  0  0  0  0  0  0  0  0  0
   -1.1057    1.4344   -0.9784 C   0  0  0  0  0  0  0  0  0  0  0  0
   -1.0935    2.6959   -1.0016 O   0  0  0  0  0  0  0  0  0  0  0  0
   -0.3135    0.6991   -2.0313 C   0  0  0  0  0  0  0  0  0  0  0  0
    1.1843    0.6819   -1.6968 C   0  0  0  0  0  0  0  0  0  0  0  0
    1.4797   -0.1665   -0.4819 C   0  0  0  0  0  0  0  0  0  0  0  0
    1.5288    0.4353    0.7881 C   0  0  0  0  0  0  0  0  0  0  0  0
    1.7535   -0.3379    1.9298 C   0  0  0  0  0  0  0  0  0  0  0  0
    1.9294   -1.7183    1.8169 C   0  0  0  0  0  0  0  0  0  0  0  0
    1.8779   -2.3297    0.5620 C   0  0  0  0  0  0  0  0  0  0  0  0
    1.6506   -1.5636   -0.5876 C   0  0  0  0  0  0  0  0  0  0  0  0
    1.5810   -2.2149   -1.8542 N   0  0  0  0  0  1  0  0  0  0  0  0
   -2.7745    0.8769    1.9908 H   0  0  0  0  0  0  0  0  0  0  0  0
   -1.4114    2.0161    1.7235 H   0  0  0  0  0  0  0  0  0  0  0  0
   -3.0028    2.2938    0.9050 H   0  0  0  0  0  0  0  0  0  0  0  0
   -1.1538   -1.2653    0.0074 H   0  0  0  0  0  0  0  0  0  0  0  0
   -2.7188   -1.0343    0.8491 H   0  0  0  0  0  0  0  0  0  0  0  0
   -2.6601   -0.9064   -0.9382 H   0  0  0  0  0  0  0  0  0  0  0  0
   -0.4492    1.2250   -3.0011 H   0  0  0  0  0  0  0  0  0  0  0  0
   -0.6822   -0.3352   -2.1848 H   0  0  0  0  0  0  0  0  0  0  0  0
    1.7456    0.2912   -2.5727 H   0  0  0  0  0  0  0  0  0  0  0  0
    1.5452    1.7223   -1.5382 H   0  0  0  0  0  0  0  0  0  0  0  0
    1.3829    1.5031    0.8949 H   0  0  0  0  0  0  0  0  0  0  0  0
    1.7875    0.1333    2.9035 H   0  0  0  0  0  0  0  0  0  0  0  0
    2.1019   -2.3155    2.7029 H   0  0  0  0  0  0  0  0  0  0  0  0
    2.0089   -3.4017    0.4841 H   0  0  0  0  0  0  0  0  0  0  0  0
  1  2  1  0
  2  3  1  0
  2  4  1  0
  4  5  2  0
  4  6  1  0
  6  7  1  0
  7  8  1  0
  8  9  2  0
  9 10  1  0
 10 11  2  0
 11 12  1  0
 12 13  2  0
 13 14  1  0
 13  8  1  0
  1 15  1  0
  1 16  1  0
  1 17  1  0
  3 18  1  0
  3 19  1  0
  3 20  1  0
  6 21  1  0
  6 22  1  0
  7 23  1  0
  7 24  1  0
  9 25  1  0
 10 26  1  0
 11 27  1  0
 12 28  1  0
M  RAD  1  14   3
M  END
$$$$
