
     RDKit          3D

 28 28  0  0  0  0  0  0  0  0999 V2000
   -2.9783    1.4603    0.5145 C   0  0  0  0  0  0  0  0  0  0  0  0
   -3.0824    0.0128    0.2974 N   0  0  0  0  0  0  0  0  0  0  0  0
   -4.3987   -0.6329    0.2617 C   0  0  0  0  0  0  0  0  0  0  0  0
   -1.8979   -0.7938    0.1169 C   0  0  0  0  0  0  0  0  0  0  0  0
   -2.0170   -2.0375   -0.0674 O   0  0  0  0  0  0  0  0  0  0  0  0
   -0.5205   -0.1708    0.1458 C   0  0  0  0  0  0  0  0  0  0  0  0
    0.6079   -1.1904   -0.0657 C   0  0  0  0  0  0  0  0  0  0  0  0
    1.9539   -0.5081   -0.0296 C   0  0  0  0  0  0  0  0  0  0  0  0
    2.5220   -0.0346   -1.2254 C   0  0  0  0  0  0  0  0  0  0  0  0
    3.7528    0.6272   -1.2111 C   0  0  0  0  0  0  0  0  0  0  0  0
    4.4236    0.8320   -0.0039 C   0  0  0  0  0  0  0  0  0  0  0  0
    3.8632    0.3800    1.1931 C   0  0  0  0  0  0  0  0  0  0  0  0
    2.6304   -0.2839    1.1890 C   0  0  0  0  0  0  0  0  0  0  0  0
    2.0727   -0.7215    2.4263 N   0  0  0  0  0  1  0  0  0  0  0  0
   -2.3935    1.6625    1.4360 H   0  0  0  0  0  0  0  0  0  0  0  0
   -2.4792    1.9372   -0.3547 H   0  0  0  0  0  0  0  0  0  0  0  0
   -3.9763    1.9313    0.6345 H   0  0  0  0  0  0  0  0  0  0  0  0
   -4.5482   -1.1236   -0.7233 H   0  0  0  0  0  0  0  0  0  0  0  0
   -4.4623   -1.3977    1.0645 H   0  0  0  0  0  0  0  0  0  0  0  0
   -5.2217    0.0965    0.4130 H   0  0  0  0  0  0  0  0  0  0  0  0
   -0.3768    0.3276    1.1284 H   0  0  0  0  0  0  0  0  0  0  0  0
   -0.4618    0.5998   -0.6528 H   0  0  0  0  0  0  0  0  0  0  0  0
    0.4709   -1.6982   -1.0462 H   0  0  0  0  0  0  0  0  0  0  0  0
    0.5594   -1.9778    0.7178 H   0  0  0  0  0  0  0  0  0  0  0  0
    2.0104   -0.1768   -2.1694 H   0  0  0  0  0  0  0  0  0  0  0  0
    4.1851    0.9846   -2.1368 H   0  0  0  0  0  0  0  0  0  0  0  0
    5.3761    1.3460    0.0049 H   0  0  0  0  0  0  0  0  0  0  0  0
    4.3864    0.5497    2.1259 H   0  0  0  0  0  0  0  0  0  0  0  0
  1  2  1  0
  2  3  1  0
  2  4  1  0
  4  5  2  0
  4  6  1  0
  6  7  1  0
  7  8  1  0
  8  9  2  0
  9 10  1  0
 10 11  2  0
 11 12  1  0
 12 13  2  0
 13 14  1  0
 13  8  1  0
  1 15  1  0
  1 16  1  0
  1 17  1  0
  3 18  1  0
  3 19  1  0
  3 20  1  0
  6 21  1  0
  6 22  1  0
  7 23  1  0
  7 24  1  0
  9 25  1  0
 10 26  1  0
 11 27  1  0
 12 28  1  0
M  RAD  1  14   3
M  END
$$$$
