
     RDKit          3D

 28 28  0  0  0  0  0  0  0  0999 V2000
   -3.0337   -1.1656   -0.6344 C   0  0  0  0  0  0  0  0  0  0  0  0
   -3.0671    0.2160   -0.1412 N   0  0  0  0  0  0  0  0  0  0  0  0
   -4.3450    0.9272   -0.0315 C   0  0  0  0  0  0  0  0  0  0  0  0
   -1.8500    0.8929    0.2418 C   0  0  0  0  0  0  0  0  0  0  0  0
   -1.9083    2.0818    0.6636 O   0  0  0  0  0  0  0  0  0  0  0  0
   -0.5102    0.1988    0.1450 C   0  0  0  0  0  0  0  0  0  0  0  0
    0.6616    1.0826    0.5961 C   0  0  0  0  0  0  0  0  0  0  0  0
    1.9679    0.3361    0.4731 C   0  0  0  0  0  0  0  0  0  0  0  0
    2.7080    0.4285   -0.7188 C   0  0  0  0  0  0  0  0  0  0  0  0
    3.9045   -0.2785   -0.8658 C   0  0  0  0  0  0  0  0  0  0  0  0
    4.3690   -1.0917    0.1697 C   0  0  0  0  0  0  0  0  0  0  0  0
    3.6358   -1.2041    1.3533 C   0  0  0  0  0  0  0  0  0  0  0  0
    2.4357   -0.4999    1.5098 C   0  0  0  0  0  0  0  0  0  0  0  0
    1.6983   -0.6443    2.7219 N   0  0  0  0  0  1  0  0  0  0  0  0
   -4.0490   -1.5380   -0.8847 H   0  0  0  0  0  0  0  0  0  0  0  0
   -2.4138   -1.2233   -1.5534 H   0  0  0  0  0  0  0  0  0  0  0  0
   -2.6084   -1.8337    0.1434 H   0  0  0  0  0  0  0  0  0  0  0  0
   -5.1988    0.2965   -0.3563 H   0  0  0  0  0  0  0  0  0  0  0  0
   -4.3235    1.8357   -0.6698 H   0  0  0  0  0  0  0  0  0  0  0  0
   -4.5175    1.2261    1.0240 H   0  0  0  0  0  0  0  0  0  0  0  0
   -0.5371   -0.7148    0.7768 H   0  0  0  0  0  0  0  0  0  0  0  0
   -0.3432   -0.1068   -0.9104 H   0  0  0  0  0  0  0  0  0  0  0  0
    0.5077    1.4089    1.6477 H   0  0  0  0  0  0  0  0  0  0  0  0
    0.6951    2.0027   -0.0286 H   0  0  0  0  0  0  0  0  0  0  0  0
    2.3572    1.0473   -1.5355 H   0  0  0  0  0  0  0  0  0  0  0  0
    4.4703   -0.1982   -1.7850 H   0  0  0  0  0  0  0  0  0  0  0  0
    5.2953   -1.6393    0.0532 H   0  0  0  0  0  0  0  0  0  0  0  0
    3.9992   -1.8430    2.1485 H   0  0  0  0  0  0  0  0  0  0  0  0
  1  2  1  0
  2  3  1  0
  2  4  1  0
  4  5  2  0
  4  6  1  0
  6  7  1  0
  7  8  1  0
  8  9  2  0
  9 10  1  0
 10 11  2  0
 11 12  1  0
 12 13  2  0
 13 14  1  0
 13  8  1  0
  1 15  1  0
  1 16  1  0
  1 17  1  0
  3 18  1  0
  3 19  1  0
  3 20  1  0
  6 21  1  0
  6 22  1  0
  7 23  1  0
  7 24  1  0
  9 25  1  0
 10 26  1  0
 11 27  1  0
 12 28  1  0
M  RAD  1  14   3
M  END
$$$$
