
     RDKit          3D

 28 28  0  0  0  0  0  0  0  0999 V2000
   -1.9454   -0.3294    0.8451 C   0  0  0  0  0  0  0  0  0  0  0  0
   -1.8095    0.7633   -0.1241 N   0  0  0  0  0  0  0  0  0  0  0  0
   -2.0536    2.1471    0.2949 C   0  0  0  0  0  0  0  0  0  0  0  0
   -1.4665    0.5037   -1.5039 C   0  0  0  0  0  0  0  0  0  0  0  0
   -1.6008    1.4199   -2.3609 O   0  0  0  0  0  0  0  0  0  0  0  0
   -0.8840   -0.8118   -1.9590 C   0  0  0  0  0  0  0  0  0  0  0  0
    0.6423   -0.7314   -2.0991 C   0  0  0  0  0  0  0  0  0  0  0  0
    1.3227   -0.5734   -0.7593 C   0  0  0  0  0  0  0  0  0  0  0  0
    1.6185    0.7151   -0.2801 C   0  0  0  0  0  0  0  0  0  0  0  0
    2.2043    0.8859    0.9767 C   0  0  0  0  0  0  0  0  0  0  0  0
    2.4990   -0.2254    1.7686 C   0  0  0  0  0  0  0  0  0  0  0  0
    2.2057   -1.5108    1.3070 C   0  0  0  0  0  0  0  0  0  0  0  0
    1.6161   -1.6920    0.0501 C   0  0  0  0  0  0  0  0  0  0  0  0
    1.3069   -3.0131   -0.3886 N   0  0  0  0  0  1  0  0  0  0  0  0
   -2.2904    0.0383    1.8339 H   0  0  0  0  0  0  0  0  0  0  0  0
   -0.9678   -0.8304    0.9929 H   0  0  0  0  0  0  0  0  0  0  0  0
   -2.6919   -1.0654    0.4794 H   0  0  0  0  0  0  0  0  0  0  0  0
   -1.1541    2.7640    0.0852 H   0  0  0  0  0  0  0  0  0  0  0  0
   -2.2727    2.2186    1.3808 H   0  0  0  0  0  0  0  0  0  0  0  0
   -2.9197    2.5613   -0.2633 H   0  0  0  0  0  0  0  0  0  0  0  0
   -1.3140   -1.0585   -2.9539 H   0  0  0  0  0  0  0  0  0  0  0  0
   -1.1619   -1.6470   -1.2850 H   0  0  0  0  0  0  0  0  0  0  0  0
    0.9133    0.1125   -2.7716 H   0  0  0  0  0  0  0  0  0  0  0  0
    1.0083   -1.6538   -2.5993 H   0  0  0  0  0  0  0  0  0  0  0  0
    1.3859    1.5887   -0.8765 H   0  0  0  0  0  0  0  0  0  0  0  0
    2.4265    1.8815    1.3385 H   0  0  0  0  0  0  0  0  0  0  0  0
    2.9515   -0.0907    2.7425 H   0  0  0  0  0  0  0  0  0  0  0  0
    2.4315   -2.3670    1.9302 H   0  0  0  0  0  0  0  0  0  0  0  0
  1  2  1  0
  2  3  1  0
  2  4  1  0
  4  5  2  0
  4  6  1  0
  6  7  1  0
  7  8  1  0
  8  9  2  0
  9 10  1  0
 10 11  2  0
 11 12  1  0
 12 13  2  0
 13 14  1  0
 13  8  1  0
  1 15  1  0
  1 16  1  0
  1 17  1  0
  3 18  1  0
  3 19  1  0
  3 20  1  0
  6 21  1  0
  6 22  1  0
  7 23  1  0
  7 24  1  0
  9 25  1  0
 10 26  1  0
 11 27  1  0
 12 28  1  0
M  RAD  1  14   3
M  END
$$$$
