
     RDKit          3D

 28 28  0  0  0  0  0  0  0  0999 V2000
    2.9990   -0.1669    1.4032 C   0  0  0  0  0  0  0  0  0  0  0  0
    3.0739    0.2704    0.0046 N   0  0  0  0  0  0  0  0  0  0  0  0
    4.3737    0.5766   -0.6018 C   0  0  0  0  0  0  0  0  0  0  0  0
    1.8767    0.4055   -0.7920 C   0  0  0  0  0  0  0  0  0  0  0  0
    1.9706    0.7845   -1.9930 O   0  0  0  0  0  0  0  0  0  0  0  0
    0.5155    0.1003   -0.2086 C   0  0  0  0  0  0  0  0  0  0  0  0
   -0.6300    0.3024   -1.2109 C   0  0  0  0  0  0  0  0  0  0  0  0
   -1.9586   -0.0206   -0.5712 C   0  0  0  0  0  0  0  0  0  0  0  0
   -2.4701   -1.3272   -0.6604 C   0  0  0  0  0  0  0  0  0  0  0  0
   -3.6832   -1.6559   -0.0495 C   0  0  0  0  0  0  0  0  0  0  0  0
   -4.3925   -0.6881    0.6643 C   0  0  0  0  0  0  0  0  0  0  0  0
   -3.8882    0.6099    0.7734 C   0  0  0  0  0  0  0  0  0  0  0  0
   -2.6735    0.9488    0.1650 C   0  0  0  0  0  0  0  0  0  0  0  0
   -2.1730    2.2768    0.3047 N   0  0  0  0  0  1  0  0  0  0  0  0
    2.3860    0.5487    1.9900 H   0  0  0  0  0  0  0  0  0  0  0  0
    4.0036   -0.2192    1.8726 H   0  0  0  0  0  0  0  0  0  0  0  0
    2.5445   -1.1781    1.4585 H   0  0  0  0  0  0  0  0  0  0  0  0
    4.3882    1.6336   -0.9421 H   0  0  0  0  0  0  0  0  0  0  0  0
    4.5467   -0.0902   -1.4729 H   0  0  0  0  0  0  0  0  0  0  0  0
    5.2090    0.4327    0.1151 H   0  0  0  0  0  0  0  0  0  0  0  0
    0.5059   -0.9553    0.1388 H   0  0  0  0  0  0  0  0  0  0  0  0
    0.3485    0.7619    0.6683 H   0  0  0  0  0  0  0  0  0  0  0  0
   -0.4701   -0.3536   -2.0952 H   0  0  0  0  0  0  0  0  0  0  0  0
   -0.6306    1.3513   -1.5798 H   0  0  0  0  0  0  0  0  0  0  0  0
   -1.9279   -2.0924   -1.2023 H   0  0  0  0  0  0  0  0  0  0  0  0
   -4.0719   -2.6631   -0.1268 H   0  0  0  0  0  0  0  0  0  0  0  0
   -5.3313   -0.9453    1.1378 H   0  0  0  0  0  0  0  0  0  0  0  0
   -4.4409    1.3526    1.3353 H   0  0  0  0  0  0  0  0  0  0  0  0
  1  2  1  0
  2  3  1  0
  2  4  1  0
  4  5  2  0
  4  6  1  0
  6  7  1  0
  7  8  1  0
  8  9  2  0
  9 10  1  0
 10 11  2  0
 11 12  1  0
 12 13  2  0
 13 14  1  0
 13  8  1  0
  1 15  1  0
  1 16  1  0
  1 17  1  0
  3 18  1  0
  3 19  1  0
  3 20  1  0
  6 21  1  0
  6 22  1  0
  7 23  1  0
  7 24  1  0
  9 25  1  0
 10 26  1  0
 11 27  1  0
 12 28  1  0
M  RAD  1  14   3
M  END
$$$$
