
     RDKit          3D

 28 28  0  0  0  0  0  0  0  0999 V2000
    2.9397   -1.3949    0.7700 C   0  0  0  0  0  0  0  0  0  0  0  0
    3.0806   -0.0471    0.2071 N   0  0  0  0  0  0  0  0  0  0  0  0
    4.4126    0.5407    0.0306 C   0  0  0  0  0  0  0  0  0  0  0  0
    1.9175    0.7170   -0.1795 C   0  0  0  0  0  0  0  0  0  0  0  0
    2.0684    1.8743   -0.6620 O   0  0  0  0  0  0  0  0  0  0  0  0
    0.5250    0.1512   -0.0151 C   0  0  0  0  0  0  0  0  0  0  0  0
   -0.5767    1.1138   -0.4813 C   0  0  0  0  0  0  0  0  0  0  0  0
   -1.9397    0.4941   -0.2889 C   0  0  0  0  0  0  0  0  0  0  0  0
   -2.6340    0.7094    0.9146 C   0  0  0  0  0  0  0  0  0  0  0  0
   -3.8835    0.1204    1.1262 C   0  0  0  0  0  0  0  0  0  0  0  0
   -4.4478   -0.6966    0.1447 C   0  0  0  0  0  0  0  0  0  0  0  0
   -3.7618   -0.9309   -1.0494 C   0  0  0  0  0  0  0  0  0  0  0  0
   -2.5093   -0.3454   -1.2705 C   0  0  0  0  0  0  0  0  0  0  0  0
   -1.8228   -0.6132   -2.4914 N   0  0  0  0  0  1  0  0  0  0  0  0
    2.3439   -1.3526    1.7056 H   0  0  0  0  0  0  0  0  0  0  0  0
    3.9250   -1.8443    1.0138 H   0  0  0  0  0  0  0  0  0  0  0  0
    2.4347   -2.0587    0.0375 H   0  0  0  0  0  0  0  0  0  0  0  0
    4.5803    0.7720   -1.0426 H   0  0  0  0  0  0  0  0  0  0  0  0
    4.4899    1.4771    0.6226 H   0  0  0  0  0  0  0  0  0  0  0  0
    5.2165   -0.1477    0.3657 H   0  0  0  0  0  0  0  0  0  0  0  0
    0.3623   -0.0873    1.0581 H   0  0  0  0  0  0  0  0  0  0  0  0
    0.4529   -0.7904   -0.6006 H   0  0  0  0  0  0  0  0  0  0  0  0
   -0.4250    1.3742   -1.5515 H   0  0  0  0  0  0  0  0  0  0  0  0
   -0.5107    2.0621    0.0969 H   0  0  0  0  0  0  0  0  0  0  0  0
   -2.2065    1.3328    1.6903 H   0  0  0  0  0  0  0  0  0  0  0  0
   -4.4133    0.2950    2.0538 H   0  0  0  0  0  0  0  0  0  0  0  0
   -5.4150   -1.1528    0.3113 H   0  0  0  0  0  0  0  0  0  0  0  0
   -4.2030   -1.5720   -1.8023 H   0  0  0  0  0  0  0  0  0  0  0  0
  1  2  1  0
  2  3  1  0
  2  4  1  0
  4  5  2  0
  4  6  1  0
  6  7  1  0
  7  8  1  0
  8  9  2  0
  9 10  1  0
 10 11  2  0
 11 12  1  0
 12 13  2  0
 13 14  1  0
 13  8  1  0
  1 15  1  0
  1 16  1  0
  1 17  1  0
  3 18  1  0
  3 19  1  0
  3 20  1  0
  6 21  1  0
  6 22  1  0
  7 23  1  0
  7 24  1  0
  9 25  1  0
 10 26  1  0
 11 27  1  0
 12 28  1  0
M  RAD  1  14   3
M  END
$$$$
