
     RDKit          3D

 28 28  0  0  0  0  0  0  0  0999 V2000
   -2.0185   -0.0427   -0.8971 C   0  0  0  0  0  0  0  0  0  0  0  0
   -1.8065    0.6821    0.3605 N   0  0  0  0  0  0  0  0  0  0  0  0
   -2.0845    2.1201    0.4319 C   0  0  0  0  0  0  0  0  0  0  0  0
   -1.3539    0.0004    1.5519 C   0  0  0  0  0  0  0  0  0  0  0  0
   -1.4200    0.5871    2.6669 O   0  0  0  0  0  0  0  0  0  0  0  0
   -0.7357   -1.3755    1.5113 C   0  0  0  0  0  0  0  0  0  0  0  0
    0.7968   -1.3038    1.5543 C   0  0  0  0  0  0  0  0  0  0  0  0
    1.3677   -0.7037    0.2906 C   0  0  0  0  0  0  0  0  0  0  0  0
    1.6230    0.6779    0.2335 C   0  0  0  0  0  0  0  0  0  0  0  0
    2.1063    1.2607   -0.9406 C   0  0  0  0  0  0  0  0  0  0  0  0
    2.3376    0.4727   -2.0695 C   0  0  0  0  0  0  0  0  0  0  0  0
    2.0833   -0.9002   -2.0283 C   0  0  0  0  0  0  0  0  0  0  0  0
    1.5965   -1.4930   -0.8571 C   0  0  0  0  0  0  0  0  0  0  0  0
    1.3245   -2.8928   -0.8479 N   0  0  0  0  0  1  0  0  0  0  0  0
   -2.7327   -0.8769   -0.7342 H   0  0  0  0  0  0  0  0  0  0  0  0
   -1.0554   -0.4427   -1.2724 H   0  0  0  0  0  0  0  0  0  0  0  0
   -2.4417    0.6152   -1.6846 H   0  0  0  0  0  0  0  0  0  0  0  0
   -1.1716    2.6601    0.7615 H   0  0  0  0  0  0  0  0  0  0  0  0
   -2.9035    2.3086    1.1578 H   0  0  0  0  0  0  0  0  0  0  0  0
   -2.3899    2.5322   -0.5526 H   0  0  0  0  0  0  0  0  0  0  0  0
   -1.0659   -1.9556    0.6260 H   0  0  0  0  0  0  0  0  0  0  0  0
   -1.0845   -1.9414    2.4021 H   0  0  0  0  0  0  0  0  0  0  0  0
    1.1201   -0.7152    2.4414 H   0  0  0  0  0  0  0  0  0  0  0  0
    1.2025   -2.3281    1.6997 H   0  0  0  0  0  0  0  0  0  0  0  0
    1.4381    1.3058    1.0964 H   0  0  0  0  0  0  0  0  0  0  0  0
    2.2979    2.3254   -0.9762 H   0  0  0  0  0  0  0  0  0  0  0  0
    2.7106    0.9266   -2.9785 H   0  0  0  0  0  0  0  0  0  0  0  0
    2.2594   -1.5031   -2.9104 H   0  0  0  0  0  0  0  0  0  0  0  0
  1  2  1  0
  2  3  1  0
  2  4  1  0
  4  5  2  0
  4  6  1  0
  6  7  1  0
  7  8  1  0
  8  9  2  0
  9 10  1  0
 10 11  2  0
 11 12  1  0
 12 13  2  0
 13 14  1  0
 13  8  1  0
  1 15  1  0
  1 16  1  0
  1 17  1  0
  3 18  1  0
  3 19  1  0
  3 20  1  0
  6 21  1  0
  6 22  1  0
  7 23  1  0
  7 24  1  0
  9 25  1  0
 10 26  1  0
 11 27  1  0
 12 28  1  0
M  RAD  1  14   3
M  END
$$$$
