
     RDKit          3D

 28 28  0  0  0  0  0  0  0  0999 V2000
   -2.8843    0.7628   -1.4513 C   0  0  0  0  0  0  0  0  0  0  0  0
   -3.0694   -0.0830   -0.2666 N   0  0  0  0  0  0  0  0  0  0  0  0
   -4.4165   -0.4994    0.1368 C   0  0  0  0  0  0  0  0  0  0  0  0
   -1.9353   -0.5159    0.5161 C   0  0  0  0  0  0  0  0  0  0  0  0
   -2.1240   -1.2429    1.5314 O   0  0  0  0  0  0  0  0  0  0  0  0
   -0.5285   -0.1112    0.1373 C   0  0  0  0  0  0  0  0  0  0  0  0
    0.5379   -0.6708    1.0899 C   0  0  0  0  0  0  0  0  0  0  0  0
    1.9171   -0.2355    0.6576 C   0  0  0  0  0  0  0  0  0  0  0  0
    2.6571   -1.0500   -0.2176 C   0  0  0  0  0  0  0  0  0  0  0  0
    3.9233   -0.6518   -0.6548 C   0  0  0  0  0  0  0  0  0  0  0  0
    4.4592    0.5661   -0.2320 C   0  0  0  0  0  0  0  0  0  0  0  0
    3.7282    1.3917    0.6255 C   0  0  0  0  0  0  0  0  0  0  0  0
    2.4587    1.0015    1.0688 C   0  0  0  0  0  0  0  0  0  0  0  0
    1.7267    1.8698    1.9313 N   0  0  0  0  0  1  0  0  0  0  0  0
   -2.3998    1.7182   -1.1607 H   0  0  0  0  0  0  0  0  0  0  0  0
   -3.8516    1.0060   -1.9386 H   0  0  0  0  0  0  0  0  0  0  0  0
   -2.2512    0.2362   -2.1956 H   0  0  0  0  0  0  0  0  0  0  0  0
   -5.1951   -0.1003   -0.5466 H   0  0  0  0  0  0  0  0  0  0  0  0
   -4.6320   -0.1282    1.1610 H   0  0  0  0  0  0  0  0  0  0  0  0
   -4.4839   -1.6079    0.1281 H   0  0  0  0  0  0  0  0  0  0  0  0
   -0.3179   -0.4764   -0.8909 H   0  0  0  0  0  0  0  0  0  0  0  0
   -0.4660    0.9981    0.1375 H   0  0  0  0  0  0  0  0  0  0  0  0
    0.3380   -0.3257    2.1277 H   0  0  0  0  0  0  0  0  0  0  0  0
    0.4810   -1.7820    1.0997 H   0  0  0  0  0  0  0  0  0  0  0  0
    2.2523   -1.9934   -0.5628 H   0  0  0  0  0  0  0  0  0  0  0  0
    4.4882   -1.2869   -1.3250 H   0  0  0  0  0  0  0  0  0  0  0  0
    5.4395    0.8730   -0.5729 H   0  0  0  0  0  0  0  0  0  0  0  0
    4.1479    2.3382    0.9427 H   0  0  0  0  0  0  0  0  0  0  0  0
  1  2  1  0
  2  3  1  0
  2  4  1  0
  4  5  2  0
  4  6  1  0
  6  7  1  0
  7  8  1  0
  8  9  2  0
  9 10  1  0
 10 11  2  0
 11 12  1  0
 12 13  2  0
 13 14  1  0
 13  8  1  0
  1 15  1  0
  1 16  1  0
  1 17  1  0
  3 18  1  0
  3 19  1  0
  3 20  1  0
  6 21  1  0
  6 22  1  0
  7 23  1  0
  7 24  1  0
  9 25  1  0
 10 26  1  0
 11 27  1  0
 12 28  1  0
M  RAD  1  14   3
M  END
$$$$
