
     RDKit          3D

 28 28  0  0  0  0  0  0  0  0999 V2000
   -1.9895    0.3923   -0.7670 C   0  0  0  0  0  0  0  0  0  0  0  0
   -1.8316    0.4075    0.6913 N   0  0  0  0  0  0  0  0  0  0  0  0
   -2.1450    1.6237    1.4483 C   0  0  0  0  0  0  0  0  0  0  0  0
   -1.3988   -0.7686    1.4112 C   0  0  0  0  0  0  0  0  0  0  0  0
   -1.5114   -0.8052    2.6673 O   0  0  0  0  0  0  0  0  0  0  0  0
   -0.7479   -1.9438    0.7241 C   0  0  0  0  0  0  0  0  0  0  0  0
    0.7806   -1.8937    0.8536 C   0  0  0  0  0  0  0  0  0  0  0  0
    1.3745   -0.7473    0.0687 C   0  0  0  0  0  0  0  0  0  0  0  0
    1.5993    0.4858    0.7061 C   0  0  0  0  0  0  0  0  0  0  0  0
    2.1034    1.5728   -0.0125 C   0  0  0  0  0  0  0  0  0  0  0  0
    2.3862    1.4417   -1.3733 C   0  0  0  0  0  0  0  0  0  0  0  0
    2.1627    0.2240   -2.0201 C   0  0  0  0  0  0  0  0  0  0  0  0
    1.6553   -0.8702   -1.3092 C   0  0  0  0  0  0  0  0  0  0  0  0
    1.4158   -2.0957   -1.9976 N   0  0  0  0  0  1  0  0  0  0  0  0
   -2.4045    1.3496   -1.1458 H   0  0  0  0  0  0  0  0  0  0  0  0
   -2.6887   -0.4185   -1.0608 H   0  0  0  0  0  0  0  0  0  0  0  0
   -1.0067    0.2335   -1.2542 H   0  0  0  0  0  0  0  0  0  0  0  0
   -2.9892    1.4270    2.1424 H   0  0  0  0  0  0  0  0  0  0  0  0
   -2.4306    2.4643    0.7819 H   0  0  0  0  0  0  0  0  0  0  0  0
   -1.2550    1.9376    2.0340 H   0  0  0  0  0  0  0  0  0  0  0  0
   -1.0383   -2.0165   -0.3435 H   0  0  0  0  0  0  0  0  0  0  0  0
   -1.1096   -2.8761    1.2092 H   0  0  0  0  0  0  0  0  0  0  0  0
    1.2055   -2.8551    0.4930 H   0  0  0  0  0  0  0  0  0  0  0  0
    1.0637   -1.8145    1.9266 H   0  0  0  0  0  0  0  0  0  0  0  0
    1.3745    0.6082    1.7584 H   0  0  0  0  0  0  0  0  0  0  0  0
    2.2712    2.5188    0.4857 H   0  0  0  0  0  0  0  0  0  0  0  0
    2.7753    2.2855   -1.9284 H   0  0  0  0  0  0  0  0  0  0  0  0
    2.3787    0.1328   -3.0773 H   0  0  0  0  0  0  0  0  0  0  0  0
  1  2  1  0
  2  3  1  0
  2  4  1  0
  4  5  2  0
  4  6  1  0
  6  7  1  0
  7  8  1  0
  8  9  2  0
  9 10  1  0
 10 11  2  0
 11 12  1  0
 12 13  2  0
 13 14  1  0
 13  8  1  0
  1 15  1  0
  1 16  1  0
  1 17  1  0
  3 18  1  0
  3 19  1  0
  3 20  1  0
  6 21  1  0
  6 22  1  0
  7 23  1  0
  7 24  1  0
  9 25  1  0
 10 26  1  0
 11 27  1  0
 12 28  1  0
M  RAD  1  14   3
M  END
$$$$
