
     RDKit          3D

 28 28  0  0  0  0  0  0  0  0999 V2000
    4.3706    0.0425   -0.8123 C   0  0  0  0  0  0  0  0  0  0  0  0
    3.0756   -0.1962   -0.1666 N   0  0  0  0  0  0  0  0  0  0  0  0
    3.0121   -0.9101    1.1138 C   0  0  0  0  0  0  0  0  0  0  0  0
    1.8717    0.2799   -0.8071 C   0  0  0  0  0  0  0  0  0  0  0  0
    1.9559    0.8920   -1.9085 O   0  0  0  0  0  0  0  0  0  0  0  0
    0.5151    0.0560   -0.1780 C   0  0  0  0  0  0  0  0  0  0  0  0
   -0.6390    0.6337   -1.0100 C   0  0  0  0  0  0  0  0  0  0  0  0
   -1.9631    0.3757   -0.3326 C   0  0  0  0  0  0  0  0  0  0  0  0
   -2.6820   -0.7926   -0.6409 C   0  0  0  0  0  0  0  0  0  0  0  0
   -3.8949   -1.0665   -0.0032 C   0  0  0  0  0  0  0  0  0  0  0  0
   -4.3973   -0.1838    0.9548 C   0  0  0  0  0  0  0  0  0  0  0  0
   -3.6857    0.9730    1.2813 C   0  0  0  0  0  0  0  0  0  0  0  0
   -2.4694    1.2559    0.6480 C   0  0  0  0  0  0  0  0  0  0  0  0
   -1.7550    2.4355    1.0109 N   0  0  0  0  0  1  0  0  0  0  0  0
    4.5350    1.1346   -0.9288 H   0  0  0  0  0  0  0  0  0  0  0  0
    4.3837   -0.4380   -1.8134 H   0  0  0  0  0  0  0  0  0  0  0  0
    5.2118   -0.3724   -0.2185 H   0  0  0  0  0  0  0  0  0  0  0  0
    4.0206   -1.2074    1.4698 H   0  0  0  0  0  0  0  0  0  0  0  0
    2.4051   -1.8326    1.0017 H   0  0  0  0  0  0  0  0  0  0  0  0
    2.5568   -0.2573    1.8876 H   0  0  0  0  0  0  0  0  0  0  0  0
    0.5073    0.5293    0.8272 H   0  0  0  0  0  0  0  0  0  0  0  0
    0.3561   -1.0370   -0.0547 H   0  0  0  0  0  0  0  0  0  0  0  0
   -0.4923    1.7262   -1.1547 H   0  0  0  0  0  0  0  0  0  0  0  0
   -0.6377    0.1684   -2.0207 H   0  0  0  0  0  0  0  0  0  0  0  0
   -2.3019   -1.4927   -1.3747 H   0  0  0  0  0  0  0  0  0  0  0  0
   -4.4442   -1.9660   -0.2497 H   0  0  0  0  0  0  0  0  0  0  0  0
   -5.3363   -0.3987    1.4484 H   0  0  0  0  0  0  0  0  0  0  0  0
   -4.0786    1.6485    2.0310 H   0  0  0  0  0  0  0  0  0  0  0  0
  1  2  1  0
  2  3  1  0
  2  4  1  0
  4  5  2  0
  4  6  1  0
  6  7  1  0
  7  8  1  0
  8  9  2  0
  9 10  1  0
 10 11  2  0
 11 12  1  0
 12 13  2  0
 13 14  1  0
 13  8  1  0
  1 15  1  0
  1 16  1  0
  1 17  1  0
  3 18  1  0
  3 19  1  0
  3 20  1  0
  6 21  1  0
  6 22  1  0
  7 23  1  0
  7 24  1  0
  9 25  1  0
 10 26  1  0
 11 27  1  0
 12 28  1  0
M  RAD  1  14   3
M  END
$$$$
