
     RDKit          3D

 28 28  0  0  0  0  0  0  0  0999 V2000
   -2.1804    0.2659    0.3006 C   0  0  0  0  0  0  0  0  0  0  0  0
   -1.6743   -0.9113   -0.4135 N   0  0  0  0  0  0  0  0  0  0  0  0
   -1.9834   -2.2563    0.0822 C   0  0  0  0  0  0  0  0  0  0  0  0
   -0.8953   -0.7771   -1.6234 C   0  0  0  0  0  0  0  0  0  0  0  0
   -0.6891   -1.7908   -2.3458 O   0  0  0  0  0  0  0  0  0  0  0  0
   -0.2529    0.5259   -2.0317 C   0  0  0  0  0  0  0  0  0  0  0  0
    1.2322    0.5645   -1.6463 C   0  0  0  0  0  0  0  0  0  0  0  0
    1.4236    0.6161   -0.1484 C   0  0  0  0  0  0  0  0  0  0  0  0
    1.5971   -0.5805    0.5695 C   0  0  0  0  0  0  0  0  0  0  0  0
    1.7285   -0.5592    1.9602 C   0  0  0  0  0  0  0  0  0  0  0  0
    1.6862    0.6546    2.6488 C   0  0  0  0  0  0  0  0  0  0  0  0
    1.5092    1.8502    1.9486 C   0  0  0  0  0  0  0  0  0  0  0  0
    1.3740    1.8388    0.5551 C   0  0  0  0  0  0  0  0  0  0  0  0
    1.1727    3.0710   -0.1338 N   0  0  0  0  0  1  0  0  0  0  0  0
   -2.7909    0.8885   -0.3867 H   0  0  0  0  0  0  0  0  0  0  0  0
   -2.8236   -0.0189    1.1592 H   0  0  0  0  0  0  0  0  0  0  0  0
   -1.3348    0.8638    0.6954 H   0  0  0  0  0  0  0  0  0  0  0  0
   -2.5888   -2.8040   -0.6706 H   0  0  0  0  0  0  0  0  0  0  0  0
   -2.5548   -2.2260    1.0334 H   0  0  0  0  0  0  0  0  0  0  0  0
   -1.0392   -2.8114    0.2667 H   0  0  0  0  0  0  0  0  0  0  0  0
   -0.3303    0.6223   -3.1363 H   0  0  0  0  0  0  0  0  0  0  0  0
   -0.7807    1.4030   -1.6058 H   0  0  0  0  0  0  0  0  0  0  0  0
    1.7042    1.4544   -2.1157 H   0  0  0  0  0  0  0  0  0  0  0  0
    1.7533   -0.3216   -2.0719 H   0  0  0  0  0  0  0  0  0  0  0  0
    1.6205   -1.5318    0.0523 H   0  0  0  0  0  0  0  0  0  0  0  0
    1.8593   -1.4852    2.5049 H   0  0  0  0  0  0  0  0  0  0  0  0
    1.7867    0.6686    3.7263 H   0  0  0  0  0  0  0  0  0  0  0  0
    1.4711    2.7866    2.4910 H   0  0  0  0  0  0  0  0  0  0  0  0
  1  2  1  0
  2  3  1  0
  2  4  1  0
  4  5  2  0
  4  6  1  0
  6  7  1  0
  7  8  1  0
  8  9  2  0
  9 10  1  0
 10 11  2  0
 11 12  1  0
 12 13  2  0
 13 14  1  0
 13  8  1  0
  1 15  1  0
  1 16  1  0
  1 17  1  0
  3 18  1  0
  3 19  1  0
  3 20  1  0
  6 21  1  0
  6 22  1  0
  7 23  1  0
  7 24  1  0
  9 25  1  0
 10 26  1  0
 11 27  1  0
 12 28  1  0
M  RAD  1  14   3
M  END
$$$$
