
     RDKit          3D

 31 33  0  0  0  0  0  0  0  0999 V2000
   -2.3496   -2.4866   -1.1917 N   0  0  0  0  0  1  0  0  0  0  0  0
   -2.3114   -1.3419   -0.3424 C   0  0  0  0  0  0  0  0  0  0  0  0
   -2.8759   -1.4214    0.9363 C   0  0  0  0  0  0  0  0  0  0  0  0
   -2.8373   -0.3188    1.7930 C   0  0  0  0  0  0  0  0  0  0  0  0
   -2.2360    0.8699    1.3757 C   0  0  0  0  0  0  0  0  0  0  0  0
   -1.6723    0.9599    0.1006 C   0  0  0  0  0  0  0  0  0  0  0  0
   -1.7054   -0.1421   -0.7728 C   0  0  0  0  0  0  0  0  0  0  0  0
   -1.0253   -0.0461   -2.1197 C   0  0  0  0  0  0  0  0  0  0  0  0
    0.3842   -0.6557   -2.0935 C   0  0  0  0  0  0  0  0  0  0  0  0
    1.3025    0.1026   -1.1718 C   0  0  0  0  0  0  0  0  0  0  0  0
    1.9738    1.2680   -1.6024 C   0  0  0  0  0  0  0  0  0  0  0  0
    2.7813    2.0010   -0.7048 C   0  0  0  0  0  0  0  0  0  0  0  0
    2.9150    1.5862    0.6324 C   0  0  0  0  0  0  0  0  0  0  0  0
    2.2301    0.4413    1.0285 C   0  0  0  0  0  0  0  0  0  0  0  0
    2.1855   -0.1434    2.2794 O   0  0  0  0  0  0  0  0  0  0  0  0
    1.3282   -1.2906    2.2023 C   0  0  0  0  0  0  0  0  0  0  0  0
    0.8940   -1.3400    0.8370 O   0  0  0  0  0  0  0  0  0  0  0  0
    1.4603   -0.2716    0.1665 C   0  0  0  0  0  0  0  0  0  0  0  0
   -3.3403   -2.3410    1.2695 H   0  0  0  0  0  0  0  0  0  0  0  0
   -3.2710   -0.3871    2.7822 H   0  0  0  0  0  0  0  0  0  0  0  0
   -2.2010    1.7211    2.0433 H   0  0  0  0  0  0  0  0  0  0  0  0
   -1.1942    1.8840   -0.2002 H   0  0  0  0  0  0  0  0  0  0  0  0
   -0.9648    1.0145   -2.4499 H   0  0  0  0  0  0  0  0  0  0  0  0
   -1.6346   -0.5764   -2.8828 H   0  0  0  0  0  0  0  0  0  0  0  0
    0.3306   -1.7236   -1.7892 H   0  0  0  0  0  0  0  0  0  0  0  0
    0.8018   -0.6367   -3.1235 H   0  0  0  0  0  0  0  0  0  0  0  0
    1.8677    1.6118   -2.6236 H   0  0  0  0  0  0  0  0  0  0  0  0
    3.2930    2.8917   -1.0452 H   0  0  0  0  0  0  0  0  0  0  0  0
    3.5230    2.1431    1.3330 H   0  0  0  0  0  0  0  0  0  0  0  0
    1.8938   -2.2107    2.4585 H   0  0  0  0  0  0  0  0  0  0  0  0
    0.4546   -1.1615    2.8754 H   0  0  0  0  0  0  0  0  0  0  0  0
  1  2  1  0
  2  3  2  0
  3  4  1  0
  4  5  2  0
  5  6  1  0
  6  7  2  0
  7  8  1  0
  8  9  1  0
  9 10  1  0
 10 11  2  0
 11 12  1  0
 12 13  2  0
 13 14  1  0
 14 15  1  0
 15 16  1  0
 16 17  1  0
 17 18  1  0
  7  2  1  0
 18 10  1  0
 18 14  2  0
  3 19  1  0
  4 20  1  0
  5 21  1  0
  6 22  1  0
  8 23  1  0
  8 24  1  0
  9 25  1  0
  9 26  1  0
 11 27  1  0
 12 28  1  0
 13 29  1  0
 16 30  1  0
 16 31  1  0
M  RAD  1   1   3
M  END
$$$$
