
     RDKit          3D

 31 33  0  0  0  0  0  0  0  0999 V2000
    2.0481    0.3435   -2.9683 N   0  0  0  0  0  1  0  0  0  0  0  0
    2.1015    0.6161   -1.5697 C   0  0  0  0  0  0  0  0  0  0  0  0
    2.5180    1.8805   -1.1361 C   0  0  0  0  0  0  0  0  0  0  0  0
    2.5639    2.1774    0.2280 C   0  0  0  0  0  0  0  0  0  0  0  0
    2.1957    1.2117    1.1664 C   0  0  0  0  0  0  0  0  0  0  0  0
    1.7812   -0.0537    0.7435 C   0  0  0  0  0  0  0  0  0  0  0  0
    1.7316   -0.3666   -0.6268 C   0  0  0  0  0  0  0  0  0  0  0  0
    1.2107   -1.7168   -1.0644 C   0  0  0  0  0  0  0  0  0  0  0  0
   -0.2710   -1.6560   -1.4644 C   0  0  0  0  0  0  0  0  0  0  0  0
   -1.1493   -1.2929   -0.2962 C   0  0  0  0  0  0  0  0  0  0  0  0
   -1.5893   -2.2718    0.6217 C   0  0  0  0  0  0  0  0  0  0  0  0
   -2.3602   -1.9025    1.7461 C   0  0  0  0  0  0  0  0  0  0  0  0
   -2.6869   -0.5533    1.9720 C   0  0  0  0  0  0  0  0  0  0  0  0
   -2.2270    0.3881    1.0561 C   0  0  0  0  0  0  0  0  0  0  0  0
   -2.3957    1.7592    1.0754 O   0  0  0  0  0  0  0  0  0  0  0  0
   -1.7200    2.3053   -0.0656 C   0  0  0  0  0  0  0  0  0  0  0  0
   -1.1659    1.1727   -0.7476 O   0  0  0  0  0  0  0  0  0  0  0  0
   -1.4936    0.0364   -0.0313 C   0  0  0  0  0  0  0  0  0  0  0  0
    2.8011    2.6368   -1.8575 H   0  0  0  0  0  0  0  0  0  0  0  0
    2.8821    3.1579    0.5577 H   0  0  0  0  0  0  0  0  0  0  0  0
    2.2254    1.4456    2.2227 H   0  0  0  0  0  0  0  0  0  0  0  0
    1.4821   -0.7850    1.4844 H   0  0  0  0  0  0  0  0  0  0  0  0
    1.8043   -2.0820   -1.9299 H   0  0  0  0  0  0  0  0  0  0  0  0
    1.3458   -2.4670   -0.2541 H   0  0  0  0  0  0  0  0  0  0  0  0
   -0.4115   -0.9270   -2.2919 H   0  0  0  0  0  0  0  0  0  0  0  0
   -0.5768   -2.6497   -1.8576 H   0  0  0  0  0  0  0  0  0  0  0  0
   -1.3317   -3.3129    0.4729 H   0  0  0  0  0  0  0  0  0  0  0  0
   -2.6939   -2.6605    2.4426 H   0  0  0  0  0  0  0  0  0  0  0  0
   -3.2690   -0.2552    2.8340 H   0  0  0  0  0  0  0  0  0  0  0  0
   -0.9076    2.9881    0.2611 H   0  0  0  0  0  0  0  0  0  0  0  0
   -2.4418    2.8335   -0.7230 H   0  0  0  0  0  0  0  0  0  0  0  0
  1  2  1  0
  2  3  2  0
  3  4  1  0
  4  5  2  0
  5  6  1  0
  6  7  2  0
  7  8  1  0
  8  9  1  0
  9 10  1  0
 10 11  2  0
 11 12  1  0
 12 13  2  0
 13 14  1  0
 14 15  1  0
 15 16  1  0
 16 17  1  0
 17 18  1  0
  7  2  1  0
 18 10  1  0
 18 14  2  0
  3 19  1  0
  4 20  1  0
  5 21  1  0
  6 22  1  0
  8 23  1  0
  8 24  1  0
  9 25  1  0
  9 26  1  0
 11 27  1  0
 12 28  1  0
 13 29  1  0
 16 30  1  0
 16 31  1  0
M  RAD  1   1   3
M  END
$$$$
