
     RDKit          3D

 31 33  0  0  0  0  0  0  0  0999 V2000
    2.8623    1.4591    1.7874 N   0  0  0  0  0  1  0  0  0  0  0  0
    3.2026    0.5227    0.7671 C   0  0  0  0  0  0  0  0  0  0  0  0
    4.5064    0.0152    0.7138 C   0  0  0  0  0  0  0  0  0  0  0  0
    4.8605   -0.9149   -0.2665 C   0  0  0  0  0  0  0  0  0  0  0  0
    3.9120   -1.3465   -1.1958 C   0  0  0  0  0  0  0  0  0  0  0  0
    2.6082   -0.8454   -1.1507 C   0  0  0  0  0  0  0  0  0  0  0  0
    2.2429    0.1025   -0.1789 C   0  0  0  0  0  0  0  0  0  0  0  0
    0.8208    0.6043   -0.1290 C   0  0  0  0  0  0  0  0  0  0  0  0
   -0.0219   -0.2572    0.8159 C   0  0  0  0  0  0  0  0  0  0  0  0
   -1.4398    0.2399    0.8596 C   0  0  0  0  0  0  0  0  0  0  0  0
   -1.8477    1.2121    1.7996 C   0  0  0  0  0  0  0  0  0  0  0  0
   -3.1755    1.6937    1.7996 C   0  0  0  0  0  0  0  0  0  0  0  0
   -4.1038    1.2190    0.8558 C   0  0  0  0  0  0  0  0  0  0  0  0
   -3.6662    0.2721   -0.0657 C   0  0  0  0  0  0  0  0  0  0  0  0
   -4.3799   -0.3281   -1.0849 O   0  0  0  0  0  0  0  0  0  0  0  0
   -3.4996   -1.2275   -1.7727 C   0  0  0  0  0  0  0  0  0  0  0  0
   -2.2424   -1.1119   -1.0925 O   0  0  0  0  0  0  0  0  0  0  0  0
   -2.3911   -0.1958   -0.0677 C   0  0  0  0  0  0  0  0  0  0  0  0
    5.2460    0.3388    1.4355 H   0  0  0  0  0  0  0  0  0  0  0  0
    5.8694   -1.3053   -0.3024 H   0  0  0  0  0  0  0  0  0  0  0  0
    4.1862   -2.0727   -1.9500 H   0  0  0  0  0  0  0  0  0  0  0  0
    1.8821   -1.1978   -1.8730 H   0  0  0  0  0  0  0  0  0  0  0  0
    0.3768    0.5806   -1.1490 H   0  0  0  0  0  0  0  0  0  0  0  0
    0.8005    1.6644    0.2058 H   0  0  0  0  0  0  0  0  0  0  0  0
    0.4147   -0.2324    1.8386 H   0  0  0  0  0  0  0  0  0  0  0  0
   -0.0067   -1.3154    0.4733 H   0  0  0  0  0  0  0  0  0  0  0  0
   -1.1433    1.5971    2.5263 H   0  0  0  0  0  0  0  0  0  0  0  0
   -3.4792    2.4357    2.5265 H   0  0  0  0  0  0  0  0  0  0  0  0
   -5.1232    1.5816    0.8421 H   0  0  0  0  0  0  0  0  0  0  0  0
   -3.8806   -2.2677   -1.6991 H   0  0  0  0  0  0  0  0  0  0  0  0
   -3.3905   -0.9202   -2.8338 H   0  0  0  0  0  0  0  0  0  0  0  0
  1  2  1  0
  2  3  2  0
  3  4  1  0
  4  5  2  0
  5  6  1  0
  6  7  2  0
  7  8  1  0
  8  9  1  0
  9 10  1  0
 10 11  2  0
 11 12  1  0
 12 13  2  0
 13 14  1  0
 14 15  1  0
 15 16  1  0
 16 17  1  0
 17 18  1  0
  7  2  1  0
 18 10  1  0
 18 14  2  0
  3 19  1  0
  4 20  1  0
  5 21  1  0
  6 22  1  0
  8 23  1  0
  8 24  1  0
  9 25  1  0
  9 26  1  0
 11 27  1  0
 12 28  1  0
 13 29  1  0
 16 30  1  0
 16 31  1  0
M  RAD  1   1   3
M  END
$$$$
