
     RDKit          3D

 31 33  0  0  0  0  0  0  0  0999 V2000
   -2.1430   -1.1694   -2.6765 N   0  0  0  0  0  1  0  0  0  0  0  0
   -2.1733   -0.9674   -1.2653 C   0  0  0  0  0  0  0  0  0  0  0  0
   -2.6455   -1.9940   -0.4387 C   0  0  0  0  0  0  0  0  0  0  0  0
   -2.6706   -1.8266    0.9477 C   0  0  0  0  0  0  0  0  0  0  0  0
   -2.2256   -0.6315    1.5158 C   0  0  0  0  0  0  0  0  0  0  0  0
   -1.7550    0.3997    0.6991 C   0  0  0  0  0  0  0  0  0  0  0  0
   -1.7256    0.2451   -0.6986 C   0  0  0  0  0  0  0  0  0  0  0  0
   -1.1445    1.3452   -1.5578 C   0  0  0  0  0  0  0  0  0  0  0  0
    0.3203    1.0688   -1.9275 C   0  0  0  0  0  0  0  0  0  0  0  0
    1.2090    1.0545   -0.7118 C   0  0  0  0  0  0  0  0  0  0  0  0
    1.7258    2.2509   -0.1680 C   0  0  0  0  0  0  0  0  0  0  0  0
    2.5057    2.2230    1.0092 C   0  0  0  0  0  0  0  0  0  0  0  0
    2.7651    1.0042    1.6614 C   0  0  0  0  0  0  0  0  0  0  0  0
    2.2305   -0.1551    1.1074 C   0  0  0  0  0  0  0  0  0  0  0  0
    2.3254   -1.4525    1.5727 O   0  0  0  0  0  0  0  0  0  0  0  0
    1.5906   -2.2993    0.6784 C   0  0  0  0  0  0  0  0  0  0  0  0
    1.0803   -1.4199   -0.3321 O   0  0  0  0  0  0  0  0  0  0  0  0
    1.4881   -0.1339   -0.0294 C   0  0  0  0  0  0  0  0  0  0  0  0
   -2.9884   -2.9257   -0.8709 H   0  0  0  0  0  0  0  0  0  0  0  0
   -3.0322   -2.6251    1.5825 H   0  0  0  0  0  0  0  0  0  0  0  0
   -2.2394   -0.5061    2.5907 H   0  0  0  0  0  0  0  0  0  0  0  0
   -1.3970    1.3133    1.1576 H   0  0  0  0  0  0  0  0  0  0  0  0
   -1.2171    2.3252   -1.0364 H   0  0  0  0  0  0  0  0  0  0  0  0
   -1.7407    1.4430   -2.4905 H   0  0  0  0  0  0  0  0  0  0  0  0
    0.6686    1.8598   -2.6265 H   0  0  0  0  0  0  0  0  0  0  0  0
    0.3989    0.1028   -2.4722 H   0  0  0  0  0  0  0  0  0  0  0  0
    1.5208    3.2001   -0.6471 H   0  0  0  0  0  0  0  0  0  0  0  0
    2.8986    3.1453    1.4168 H   0  0  0  0  0  0  0  0  0  0  0  0
    3.3534    0.9692    2.5688 H   0  0  0  0  0  0  0  0  0  0  0  0
    0.7517   -2.7883    1.2169 H   0  0  0  0  0  0  0  0  0  0  0  0
    2.2649   -3.0552    0.2243 H   0  0  0  0  0  0  0  0  0  0  0  0
  1  2  1  0
  2  3  2  0
  3  4  1  0
  4  5  2  0
  5  6  1  0
  6  7  2  0
  7  8  1  0
  8  9  1  0
  9 10  1  0
 10 11  2  0
 11 12  1  0
 12 13  2  0
 13 14  1  0
 14 15  1  0
 15 16  1  0
 16 17  1  0
 17 18  1  0
  7  2  1  0
 18 10  1  0
 18 14  2  0
  3 19  1  0
  4 20  1  0
  5 21  1  0
  6 22  1  0
  8 23  1  0
  8 24  1  0
  9 25  1  0
  9 26  1  0
 11 27  1  0
 12 28  1  0
 13 29  1  0
 16 30  1  0
 16 31  1  0
M  RAD  1   1   3
M  END
$$$$
