
     RDKit          3D

 31 33  0  0  0  0  0  0  0  0999 V2000
   -2.5104    1.1553   -2.3677 N   0  0  0  0  0  1  0  0  0  0  0  0
   -2.9855    1.0145   -1.0305 C   0  0  0  0  0  0  0  0  0  0  0  0
   -4.3653    1.0135   -0.7929 C   0  0  0  0  0  0  0  0  0  0  0  0
   -4.8561    0.8615    0.5061 C   0  0  0  0  0  0  0  0  0  0  0  0
   -3.9705    0.7049    1.5742 C   0  0  0  0  0  0  0  0  0  0  0  0
   -2.5917    0.7049    1.3470 C   0  0  0  0  0  0  0  0  0  0  0  0
   -2.0842    0.8723    0.0466 C   0  0  0  0  0  0  0  0  0  0  0  0
   -0.5927    0.8358   -0.1787 C   0  0  0  0  0  0  0  0  0  0  0  0
   -0.1303   -0.5891   -0.4967 C   0  0  0  0  0  0  0  0  0  0  0  0
    1.3566   -0.6250   -0.7143 C   0  0  0  0  0  0  0  0  0  0  0  0
    1.9150   -0.4343   -1.9975 C   0  0  0  0  0  0  0  0  0  0  0  0
    3.3163   -0.4340   -2.1747 C   0  0  0  0  0  0  0  0  0  0  0  0
    4.1720   -0.6122   -1.0729 C   0  0  0  0  0  0  0  0  0  0  0  0
    3.5903   -0.7830    0.1800 C   0  0  0  0  0  0  0  0  0  0  0  0
    4.2144   -0.9615    1.3994 O   0  0  0  0  0  0  0  0  0  0  0  0
    3.1981   -1.0826    2.4041 C   0  0  0  0  0  0  0  0  0  0  0  0
    1.9570   -0.9649    1.6954 O   0  0  0  0  0  0  0  0  0  0  0  0
    2.2433   -0.7866    0.3545 C   0  0  0  0  0  0  0  0  0  0  0  0
   -5.0591    1.1266   -1.6166 H   0  0  0  0  0  0  0  0  0  0  0  0
   -5.9237    0.8599    0.6843 H   0  0  0  0  0  0  0  0  0  0  0  0
   -4.3528    0.5799    2.5790 H   0  0  0  0  0  0  0  0  0  0  0  0
   -1.9186    0.5727    2.1853 H   0  0  0  0  0  0  0  0  0  0  0  0
   -0.3145    1.5187   -1.0110 H   0  0  0  0  0  0  0  0  0  0  0  0
   -0.0654    1.2039    0.7293 H   0  0  0  0  0  0  0  0  0  0  0  0
   -0.6506   -0.9597   -1.4072 H   0  0  0  0  0  0  0  0  0  0  0  0
   -0.4024   -1.2680    0.3414 H   0  0  0  0  0  0  0  0  0  0  0  0
    1.2714   -0.2844   -2.8554 H   0  0  0  0  0  0  0  0  0  0  0  0
    3.7342   -0.2910   -3.1626 H   0  0  0  0  0  0  0  0  0  0  0  0
    5.2473   -0.6107   -1.1934 H   0  0  0  0  0  0  0  0  0  0  0  0
    3.2643   -2.0744    2.8985 H   0  0  0  0  0  0  0  0  0  0  0  0
    3.2941   -0.2630    3.1468 H   0  0  0  0  0  0  0  0  0  0  0  0
  1  2  1  0
  2  3  2  0
  3  4  1  0
  4  5  2  0
  5  6  1  0
  6  7  2  0
  7  8  1  0
  8  9  1  0
  9 10  1  0
 10 11  2  0
 11 12  1  0
 12 13  2  0
 13 14  1  0
 14 15  1  0
 15 16  1  0
 16 17  1  0
 17 18  1  0
  7  2  1  0
 18 10  1  0
 18 14  2  0
  3 19  1  0
  4 20  1  0
  5 21  1  0
  6 22  1  0
  8 23  1  0
  8 24  1  0
  9 25  1  0
  9 26  1  0
 11 27  1  0
 12 28  1  0
 13 29  1  0
 16 30  1  0
 16 31  1  0
M  RAD  1   1   3
M  END
$$$$
