
     RDKit          3D

 31 33  0  0  0  0  0  0  0  0999 V2000
   -1.3095   -0.2833   -2.0761 N   0  0  0  0  0  1  0  0  0  0  0  0
   -1.7056    0.3985   -0.8880 C   0  0  0  0  0  0  0  0  0  0  0  0
   -1.9638    1.7732   -0.9473 C   0  0  0  0  0  0  0  0  0  0  0  0
   -2.3367    2.4704    0.2039 C   0  0  0  0  0  0  0  0  0  0  0  0
   -2.4538    1.7976    1.4213 C   0  0  0  0  0  0  0  0  0  0  0  0
   -2.1970    0.4260    1.4915 C   0  0  0  0  0  0  0  0  0  0  0  0
   -1.8240   -0.2895    0.3402 C   0  0  0  0  0  0  0  0  0  0  0  0
   -1.4853   -1.7585    0.4620 C   0  0  0  0  0  0  0  0  0  0  0  0
   -0.0686   -1.9737    1.0143 C   0  0  0  0  0  0  0  0  0  0  0  0
    0.9841   -1.4576    0.0695 C   0  0  0  0  0  0  0  0  0  0  0  0
    1.4550   -2.2458   -1.0036 C   0  0  0  0  0  0  0  0  0  0  0  0
    2.3967   -1.7216   -1.9164 C   0  0  0  0  0  0  0  0  0  0  0  0
    2.8665   -0.4035   -1.7748 C   0  0  0  0  0  0  0  0  0  0  0  0
    2.3737    0.3509   -0.7143 C   0  0  0  0  0  0  0  0  0  0  0  0
    2.6627    1.6611   -0.3848 O   0  0  0  0  0  0  0  0  0  0  0  0
    1.8929    2.0069    0.7747 C   0  0  0  0  0  0  0  0  0  0  0  0
    1.1568    0.8207    1.1005 O   0  0  0  0  0  0  0  0  0  0  0  0
    1.4753   -0.1521    0.1710 C   0  0  0  0  0  0  0  0  0  0  0  0
   -1.8700    2.3039   -1.8865 H   0  0  0  0  0  0  0  0  0  0  0  0
   -2.5321    3.5337    0.1527 H   0  0  0  0  0  0  0  0  0  0  0  0
   -2.7380    2.3406    2.3134 H   0  0  0  0  0  0  0  0  0  0  0  0
   -2.2778   -0.0783    2.4466 H   0  0  0  0  0  0  0  0  0  0  0  0
   -2.2113   -2.2413    1.1519 H   0  0  0  0  0  0  0  0  0  0  0  0
   -1.5921   -2.2791   -0.5139 H   0  0  0  0  0  0  0  0  0  0  0  0
    0.0298   -1.4803    2.0061 H   0  0  0  0  0  0  0  0  0  0  0  0
    0.0898   -3.0613    1.1806 H   0  0  0  0  0  0  0  0  0  0  0  0
    1.0904   -3.2564   -1.1382 H   0  0  0  0  0  0  0  0  0  0  0  0
    2.7522   -2.3342   -2.7346 H   0  0  0  0  0  0  0  0  0  0  0  0
    3.5810    0.0138   -2.4719 H   0  0  0  0  0  0  0  0  0  0  0  0
    2.5652    2.2837    1.6136 H   0  0  0  0  0  0  0  0  0  0  0  0
    1.1935    2.8358    0.5367 H   0  0  0  0  0  0  0  0  0  0  0  0
  1  2  1  0
  2  3  2  0
  3  4  1  0
  4  5  2  0
  5  6  1  0
  6  7  2  0
  7  8  1  0
  8  9  1  0
  9 10  1  0
 10 11  2  0
 11 12  1  0
 12 13  2  0
 13 14  1  0
 14 15  1  0
 15 16  1  0
 16 17  1  0
 17 18  1  0
  7  2  1  0
 18 10  1  0
 18 14  2  0
  3 19  1  0
  4 20  1  0
  5 21  1  0
  6 22  1  0
  8 23  1  0
  8 24  1  0
  9 25  1  0
  9 26  1  0
 11 27  1  0
 12 28  1  0
 13 29  1  0
 16 30  1  0
 16 31  1  0
M  RAD  1   1   3
M  END
$$$$
