
     RDKit          3D

 31 33  0  0  0  0  0  0  0  0999 V2000
    2.7861    1.6266    1.6837 N   0  0  0  0  0  1  0  0  0  0  0  0
    3.1471    0.4644    0.9403 C   0  0  0  0  0  0  0  0  0  0  0  0
    4.4977    0.2280    0.6565 C   0  0  0  0  0  0  0  0  0  0  0  0
    4.8757   -0.8950   -0.0832 C   0  0  0  0  0  0  0  0  0  0  0  0
    3.9055   -1.7854   -0.5474 C   0  0  0  0  0  0  0  0  0  0  0  0
    2.5551   -1.5581   -0.2689 C   0  0  0  0  0  0  0  0  0  0  0  0
    2.1624   -0.4399    0.4875 C   0  0  0  0  0  0  0  0  0  0  0  0
    0.6961   -0.1972    0.7474 C   0  0  0  0  0  0  0  0  0  0  0  0
    0.0960    0.6957   -0.3425 C   0  0  0  0  0  0  0  0  0  0  0  0
   -1.3662    0.9311   -0.0859 C   0  0  0  0  0  0  0  0  0  0  0  0
   -1.8079    2.0247    0.6913 C   0  0  0  0  0  0  0  0  0  0  0  0
   -3.1840    2.2069    0.9522 C   0  0  0  0  0  0  0  0  0  0  0  0
   -4.1295    1.2946    0.4505 C   0  0  0  0  0  0  0  0  0  0  0  0
   -3.6603    0.2200   -0.2993 C   0  0  0  0  0  0  0  0  0  0  0  0
   -4.3845   -0.8026   -0.8810 O   0  0  0  0  0  0  0  0  0  0  0  0
   -3.4617   -1.6795   -1.5414 C   0  0  0  0  0  0  0  0  0  0  0  0
   -2.1688   -1.1046   -1.3083 O   0  0  0  0  0  0  0  0  0  0  0  0
   -2.3382    0.0423   -0.5549 C   0  0  0  0  0  0  0  0  0  0  0  0
    5.2557    0.9177    1.0061 H   0  0  0  0  0  0  0  0  0  0  0  0
    5.9209   -1.0724   -0.3012 H   0  0  0  0  0  0  0  0  0  0  0  0
    4.1997   -2.6512   -1.1266 H   0  0  0  0  0  0  0  0  0  0  0  0
    1.8144   -2.2534   -0.6445 H   0  0  0  0  0  0  0  0  0  0  0  0
    0.1524   -1.1677    0.7739 H   0  0  0  0  0  0  0  0  0  0  0  0
    0.5572    0.2763    1.7438 H   0  0  0  0  0  0  0  0  0  0  0  0
    0.2289    0.2153   -1.3369 H   0  0  0  0  0  0  0  0  0  0  0  0
    0.6325    1.6696   -0.3693 H   0  0  0  0  0  0  0  0  0  0  0  0
   -1.0929    2.7307    1.0950 H   0  0  0  0  0  0  0  0  0  0  0  0
   -3.5126    3.0503    1.5455 H   0  0  0  0  0  0  0  0  0  0  0  0
   -5.1864    1.4200    0.6455 H   0  0  0  0  0  0  0  0  0  0  0  0
   -3.6759   -1.7115   -2.6302 H   0  0  0  0  0  0  0  0  0  0  0  0
   -3.5144   -2.6958   -1.0976 H   0  0  0  0  0  0  0  0  0  0  0  0
  1  2  1  0
  2  3  2  0
  3  4  1  0
  4  5  2  0
  5  6  1  0
  6  7  2  0
  7  8  1  0
  8  9  1  0
  9 10  1  0
 10 11  2  0
 11 12  1  0
 12 13  2  0
 13 14  1  0
 14 15  1  0
 15 16  1  0
 16 17  1  0
 17 18  1  0
  7  2  1  0
 18 10  1  0
 18 14  2  0
  3 19  1  0
  4 20  1  0
  5 21  1  0
  6 22  1  0
  8 23  1  0
  8 24  1  0
  9 25  1  0
  9 26  1  0
 11 27  1  0
 12 28  1  0
 13 29  1  0
 16 30  1  0
 16 31  1  0
M  RAD  1   1   3
M  END
$$$$
