
     RDKit          3D

 31 33  0  0  0  0  0  0  0  0999 V2000
   -2.5961   -0.6757   -2.5622 N   0  0  0  0  0  1  0  0  0  0  0  0
   -3.0870   -0.2601   -1.2894 C   0  0  0  0  0  0  0  0  0  0  0  0
   -4.4211    0.1485   -1.1726 C   0  0  0  0  0  0  0  0  0  0  0  0
   -4.9217    0.5748    0.0599 C   0  0  0  0  0  0  0  0  0  0  0  0
   -4.0903    0.5996    1.1813 C   0  0  0  0  0  0  0  0  0  0  0  0
   -2.7574    0.1935    1.0746 C   0  0  0  0  0  0  0  0  0  0  0  0
   -2.2452   -0.2523   -0.1564 C   0  0  0  0  0  0  0  0  0  0  0  0
   -0.7942   -0.6544   -0.2548 C   0  0  0  0  0  0  0  0  0  0  0  0
    0.0705    0.5425   -0.6611 C   0  0  0  0  0  0  0  0  0  0  0  0
    1.5164    0.1421   -0.7523 C   0  0  0  0  0  0  0  0  0  0  0  0
    2.0698   -0.3382   -1.9598 C   0  0  0  0  0  0  0  0  0  0  0  0
    3.4213   -0.7451   -2.0148 C   0  0  0  0  0  0  0  0  0  0  0  0
    4.2284   -0.6874   -0.8645 C   0  0  0  0  0  0  0  0  0  0  0  0
    3.6487   -0.2232    0.3126 C   0  0  0  0  0  0  0  0  0  0  0  0
    4.2274   -0.0881    1.5598 O   0  0  0  0  0  0  0  0  0  0  0  0
    3.2317    0.4206    2.4579 C   0  0  0  0  0  0  0  0  0  0  0  0
    2.0506    0.5712    1.6587 O   0  0  0  0  0  0  0  0  0  0  0  0
    2.3503    0.1716    0.3695 C   0  0  0  0  0  0  0  0  0  0  0  0
   -5.0705    0.1396   -2.0391 H   0  0  0  0  0  0  0  0  0  0  0  0
   -5.9534    0.8910    0.1445 H   0  0  0  0  0  0  0  0  0  0  0  0
   -4.4779    0.9372    2.1338 H   0  0  0  0  0  0  0  0  0  0  0  0
   -2.1233    0.2280    1.9521 H   0  0  0  0  0  0  0  0  0  0  0  0
   -0.6741   -1.4764   -0.9939 H   0  0  0  0  0  0  0  0  0  0  0  0
   -0.4453   -1.0494    0.7252 H   0  0  0  0  0  0  0  0  0  0  0  0
   -0.0452    1.3597    0.0847 H   0  0  0  0  0  0  0  0  0  0  0  0
   -0.2707    0.9377   -1.6432 H   0  0  0  0  0  0  0  0  0  0  0  0
    1.4600   -0.4000   -2.8524 H   0  0  0  0  0  0  0  0  0  0  0  0
    3.8370   -1.1078   -2.9458 H   0  0  0  0  0  0  0  0  0  0  0  0
    5.2642   -0.9990   -0.8913 H   0  0  0  0  0  0  0  0  0  0  0  0
    3.5480    1.4045    2.8631 H   0  0  0  0  0  0  0  0  0  0  0  0
    3.0490   -0.3050    3.2781 H   0  0  0  0  0  0  0  0  0  0  0  0
  1  2  1  0
  2  3  2  0
  3  4  1  0
  4  5  2  0
  5  6  1  0
  6  7  2  0
  7  8  1  0
  8  9  1  0
  9 10  1  0
 10 11  2  0
 11 12  1  0
 12 13  2  0
 13 14  1  0
 14 15  1  0
 15 16  1  0
 16 17  1  0
 17 18  1  0
  7  2  1  0
 18 10  1  0
 18 14  2  0
  3 19  1  0
  4 20  1  0
  5 21  1  0
  6 22  1  0
  8 23  1  0
  8 24  1  0
  9 25  1  0
  9 26  1  0
 11 27  1  0
 12 28  1  0
 13 29  1  0
 16 30  1  0
 16 31  1  0
M  RAD  1   1   3
M  END
$$$$
