
     RDKit          3D

 31 33  0  0  0  0  0  0  0  0999 V2000
    2.4937   -0.2986    2.6008 N   0  0  0  0  0  1  0  0  0  0  0  0
    2.9982   -0.5247    1.2863 C   0  0  0  0  0  0  0  0  0  0  0  0
    4.3826   -0.5230    1.0768 C   0  0  0  0  0  0  0  0  0  0  0  0
    4.9013   -0.7267   -0.2041 C   0  0  0  0  0  0  0  0  0  0  0  0
    4.0390   -0.9284   -1.2835 C   0  0  0  0  0  0  0  0  0  0  0  0
    2.6558   -0.9320   -1.0844 C   0  0  0  0  0  0  0  0  0  0  0  0
    2.1211   -0.7435    0.2022 C   0  0  0  0  0  0  0  0  0  0  0  0
    0.6239   -0.7184    0.3875 C   0  0  0  0  0  0  0  0  0  0  0  0
    0.0907    0.7128    0.2749 C   0  0  0  0  0  0  0  0  0  0  0  0
   -1.4016    0.7354    0.4531 C   0  0  0  0  0  0  0  0  0  0  0  0
   -1.9857    0.8938    1.7293 C   0  0  0  0  0  0  0  0  0  0  0  0
   -3.3899    0.8744    1.8804 C   0  0  0  0  0  0  0  0  0  0  0  0
   -4.2225    0.6853    0.7628 C   0  0  0  0  0  0  0  0  0  0  0  0
   -3.6151    0.5177   -0.4782 C   0  0  0  0  0  0  0  0  0  0  0  0
   -4.2132    0.3067   -1.7055 O   0  0  0  0  0  0  0  0  0  0  0  0
   -3.1764    0.1845   -2.6889 C   0  0  0  0  0  0  0  0  0  0  0  0
   -1.9510    0.3377   -1.9599 O   0  0  0  0  0  0  0  0  0  0  0  0
   -2.2653    0.5384   -0.6285 C   0  0  0  0  0  0  0  0  0  0  0  0
    5.0581   -0.3596    1.9073 H   0  0  0  0  0  0  0  0  0  0  0  0
    5.9722   -0.7230   -0.3609 H   0  0  0  0  0  0  0  0  0  0  0  0
    4.4425   -1.0788   -2.2766 H   0  0  0  0  0  0  0  0  0  0  0  0
    2.0006   -1.0803   -1.9340 H   0  0  0  0  0  0  0  0  0  0  0  0
    0.3536   -1.1463    1.3776 H   0  0  0  0  0  0  0  0  0  0  0  0
    0.1381   -1.3578   -0.3827 H   0  0  0  0  0  0  0  0  0  0  0  0
    0.3552    1.1348   -0.7198 H   0  0  0  0  0  0  0  0  0  0  0  0
    0.5693    1.3550    1.0466 H   0  0  0  0  0  0  0  0  0  0  0  0
   -1.3596    1.0293    2.6024 H   0  0  0  0  0  0  0  0  0  0  0  0
   -3.8277    1.0008    2.8620 H   0  0  0  0  0  0  0  0  0  0  0  0
   -5.2995    0.6648    0.8644 H   0  0  0  0  0  0  0  0  0  0  0  0
   -3.2159   -0.8177   -3.1648 H   0  0  0  0  0  0  0  0  0  0  0  0
   -3.2728    0.9877   -3.4491 H   0  0  0  0  0  0  0  0  0  0  0  0
  1  2  1  0
  2  3  2  0
  3  4  1  0
  4  5  2  0
  5  6  1  0
  6  7  2  0
  7  8  1  0
  8  9  1  0
  9 10  1  0
 10 11  2  0
 11 12  1  0
 12 13  2  0
 13 14  1  0
 14 15  1  0
 15 16  1  0
 16 17  1  0
 17 18  1  0
  7  2  1  0
 18 10  1  0
 18 14  2  0
  3 19  1  0
  4 20  1  0
  5 21  1  0
  6 22  1  0
  8 23  1  0
  8 24  1  0
  9 25  1  0
  9 26  1  0
 11 27  1  0
 12 28  1  0
 13 29  1  0
 16 30  1  0
 16 31  1  0
M  RAD  1   1   3
M  END
$$$$
