
     RDKit          3D

 31 33  0  0  0  0  0  0  0  0999 V2000
   -2.6780   -2.4566    0.0583 N   0  0  0  0  0  1  0  0  0  0  0  0
   -3.1215   -1.1218   -0.1765 C   0  0  0  0  0  0  0  0  0  0  0  0
   -4.4761   -0.8124   -0.0042 C   0  0  0  0  0  0  0  0  0  0  0  0
   -4.9328    0.4912   -0.2130 C   0  0  0  0  0  0  0  0  0  0  0  0
   -4.0372    1.4936   -0.5905 C   0  0  0  0  0  0  0  0  0  0  0  0
   -2.6834    1.1944   -0.7652 C   0  0  0  0  0  0  0  0  0  0  0  0
   -2.2133   -0.1167   -0.5732 C   0  0  0  0  0  0  0  0  0  0  0  0
   -0.7419   -0.4089   -0.7353 C   0  0  0  0  0  0  0  0  0  0  0  0
   -0.0129   -0.2638    0.6036 C   0  0  0  0  0  0  0  0  0  0  0  0
    1.4538   -0.5488    0.4394 C   0  0  0  0  0  0  0  0  0  0  0  0
    1.9693   -1.8546    0.5949 C   0  0  0  0  0  0  0  0  0  0  0  0
    3.3449   -2.1082    0.3992 C   0  0  0  0  0  0  0  0  0  0  0  0
    4.2154   -1.0650    0.0357 C   0  0  0  0  0  0  0  0  0  0  0  0
    3.6732    0.2069   -0.1237 C   0  0  0  0  0  0  0  0  0  0  0  0
    4.3161    1.3753   -0.4845 O   0  0  0  0  0  0  0  0  0  0  0  0
    3.3388    2.4241   -0.5270 C   0  0  0  0  0  0  0  0  0  0  0  0
    2.1006    1.7948   -0.1701 O   0  0  0  0  0  0  0  0  0  0  0  0
    2.3515    0.4559    0.0661 C   0  0  0  0  0  0  0  0  0  0  0  0
   -5.1759   -1.5823    0.2960 H   0  0  0  0  0  0  0  0  0  0  0  0
   -5.9807    0.7254   -0.0770 H   0  0  0  0  0  0  0  0  0  0  0  0
   -4.3916    2.5046   -0.7447 H   0  0  0  0  0  0  0  0  0  0  0  0
   -2.0003    1.9856   -1.0489 H   0  0  0  0  0  0  0  0  0  0  0  0
   -0.5976   -1.4362   -1.1356 H   0  0  0  0  0  0  0  0  0  0  0  0
   -0.2983    0.2909   -1.4779 H   0  0  0  0  0  0  0  0  0  0  0  0
   -0.1519    0.7674    0.9970 H   0  0  0  0  0  0  0  0  0  0  0  0
   -0.4491   -0.9655    1.3482 H   0  0  0  0  0  0  0  0  0  0  0  0
    1.3117   -2.6719    0.8636 H   0  0  0  0  0  0  0  0  0  0  0  0
    3.7307   -3.1115    0.5248 H   0  0  0  0  0  0  0  0  0  0  0  0
    5.2706   -1.2456   -0.1208 H   0  0  0  0  0  0  0  0  0  0  0  0
    3.5929    3.2147    0.2098 H   0  0  0  0  0  0  0  0  0  0  0  0
    3.2728    2.8450   -1.5522 H   0  0  0  0  0  0  0  0  0  0  0  0
  1  2  1  0
  2  3  2  0
  3  4  1  0
  4  5  2  0
  5  6  1  0
  6  7  2  0
  7  8  1  0
  8  9  1  0
  9 10  1  0
 10 11  2  0
 11 12  1  0
 12 13  2  0
 13 14  1  0
 14 15  1  0
 15 16  1  0
 16 17  1  0
 17 18  1  0
  7  2  1  0
 18 10  1  0
 18 14  2  0
  3 19  1  0
  4 20  1  0
  5 21  1  0
  6 22  1  0
  8 23  1  0
  8 24  1  0
  9 25  1  0
  9 26  1  0
 11 27  1  0
 12 28  1  0
 13 29  1  0
 16 30  1  0
 16 31  1  0
M  RAD  1   1   3
M  END
$$$$
