
     RDKit          3D

 31 33  0  0  0  0  0  0  0  0999 V2000
   -2.6487   -1.0579   -2.2335 N   0  0  0  0  0  1  0  0  0  0  0  0
   -2.4736   -0.3455   -1.0108 C   0  0  0  0  0  0  0  0  0  0  0  0
   -3.1078    0.8916   -0.8447 C   0  0  0  0  0  0  0  0  0  0  0  0
   -2.9394    1.6162    0.3375 C   0  0  0  0  0  0  0  0  0  0  0  0
   -2.1378    1.1077    1.3610 C   0  0  0  0  0  0  0  0  0  0  0  0
   -1.5029   -0.1271    1.2056 C   0  0  0  0  0  0  0  0  0  0  0  0
   -1.6649   -0.8679    0.0211 C   0  0  0  0  0  0  0  0  0  0  0  0
   -0.9105   -2.1664   -0.1547 C   0  0  0  0  0  0  0  0  0  0  0  0
    0.3818   -1.9723   -0.9615 C   0  0  0  0  0  0  0  0  0  0  0  0
    1.3603   -1.0824   -0.2414 C   0  0  0  0  0  0  0  0  0  0  0  0
    2.2285   -1.5967    0.7465 C   0  0  0  0  0  0  0  0  0  0  0  0
    3.0950   -0.7356    1.4555 C   0  0  0  0  0  0  0  0  0  0  0  0
    3.0931    0.6466    1.1953 C   0  0  0  0  0  0  0  0  0  0  0  0
    2.2165    1.1233    0.2253 C   0  0  0  0  0  0  0  0  0  0  0  0
    2.0162    2.4271   -0.1853 O   0  0  0  0  0  0  0  0  0  0  0  0
    0.9934    2.4234   -1.1906 C   0  0  0  0  0  0  0  0  0  0  0  0
    0.6271    1.0460   -1.3440 O   0  0  0  0  0  0  0  0  0  0  0  0
    1.3885    0.2978   -0.4653 C   0  0  0  0  0  0  0  0  0  0  0  0
   -3.7278    1.2953   -1.6354 H   0  0  0  0  0  0  0  0  0  0  0  0
   -3.4282    2.5742    0.4589 H   0  0  0  0  0  0  0  0  0  0  0  0
   -2.0030    1.6736    2.2736 H   0  0  0  0  0  0  0  0  0  0  0  0
   -0.8703   -0.4983    2.0026 H   0  0  0  0  0  0  0  0  0  0  0  0
   -1.5563   -2.9040   -0.6780 H   0  0  0  0  0  0  0  0  0  0  0  0
   -0.6667   -2.6114    0.8353 H   0  0  0  0  0  0  0  0  0  0  0  0
    0.1449   -1.5516   -1.9630 H   0  0  0  0  0  0  0  0  0  0  0  0
    0.8490   -2.9661   -1.1341 H   0  0  0  0  0  0  0  0  0  0  0  0
    2.2303   -2.6557    0.9722 H   0  0  0  0  0  0  0  0  0  0  0  0
    3.7578   -1.1400    2.2093 H   0  0  0  0  0  0  0  0  0  0  0  0
    3.7450    1.3189    1.7372 H   0  0  0  0  0  0  0  0  0  0  0  0
    0.1180    3.0145   -0.8482 H   0  0  0  0  0  0  0  0  0  0  0  0
    1.3926    2.8228   -2.1463 H   0  0  0  0  0  0  0  0  0  0  0  0
  1  2  1  0
  2  3  2  0
  3  4  1  0
  4  5  2  0
  5  6  1  0
  6  7  2  0
  7  8  1  0
  8  9  1  0
  9 10  1  0
 10 11  2  0
 11 12  1  0
 12 13  2  0
 13 14  1  0
 14 15  1  0
 15 16  1  0
 16 17  1  0
 17 18  1  0
  7  2  1  0
 18 10  1  0
 18 14  2  0
  3 19  1  0
  4 20  1  0
  5 21  1  0
  6 22  1  0
  8 23  1  0
  8 24  1  0
  9 25  1  0
  9 26  1  0
 11 27  1  0
 12 28  1  0
 13 29  1  0
 16 30  1  0
 16 31  1  0
M  RAD  1   1   3
M  END
$$$$
