
     RDKit          3D

 31 33  0  0  0  0  0  0  0  0999 V2000
   -2.7574   -2.3435    0.2267 N   0  0  0  0  0  1  0  0  0  0  0  0
   -3.1575   -0.9793    0.1162 C   0  0  0  0  0  0  0  0  0  0  0  0
   -4.4998   -0.6809   -0.1479 C   0  0  0  0  0  0  0  0  0  0  0  0
   -4.9140    0.6470   -0.2761 C   0  0  0  0  0  0  0  0  0  0  0  0
   -3.9880    1.6838   -0.1458 C   0  0  0  0  0  0  0  0  0  0  0  0
   -2.6462    1.3960    0.1180 C   0  0  0  0  0  0  0  0  0  0  0  0
   -2.2190    0.0646    0.2645 C   0  0  0  0  0  0  0  0  0  0  0  0
   -0.7594   -0.2233    0.5162 C   0  0  0  0  0  0  0  0  0  0  0  0
   -0.0166   -0.4380   -0.8056 C   0  0  0  0  0  0  0  0  0  0  0  0
    1.4386   -0.7179   -0.5537 C   0  0  0  0  0  0  0  0  0  0  0  0
    1.9113   -2.0365   -0.3722 C   0  0  0  0  0  0  0  0  0  0  0  0
    3.2763   -2.2754   -0.0988 C   0  0  0  0  0  0  0  0  0  0  0  0
    4.1785   -1.2018    0.0072 C   0  0  0  0  0  0  0  0  0  0  0  0
    3.6781    0.0858   -0.1625 C   0  0  0  0  0  0  0  0  0  0  0  0
    4.3570    1.2870   -0.0937 O   0  0  0  0  0  0  0  0  0  0  0  0
    3.4150    2.3428   -0.3279 C   0  0  0  0  0  0  0  0  0  0  0  0
    2.1590    1.6827   -0.5359 O   0  0  0  0  0  0  0  0  0  0  0  0
    2.3668    0.3201   -0.4282 C   0  0  0  0  0  0  0  0  0  0  0  0
   -5.2230   -1.4794   -0.2581 H   0  0  0  0  0  0  0  0  0  0  0  0
   -5.9525    0.8722   -0.4817 H   0  0  0  0  0  0  0  0  0  0  0  0
   -4.3094    2.7118   -0.2528 H   0  0  0  0  0  0  0  0  0  0  0  0
   -1.9390    2.2116    0.2066 H   0  0  0  0  0  0  0  0  0  0  0  0
   -0.2977    0.6252    1.0685 H   0  0  0  0  0  0  0  0  0  0  0  0
   -0.6523   -1.1227    1.1611 H   0  0  0  0  0  0  0  0  0  0  0  0
   -0.4707   -1.2891   -1.3591 H   0  0  0  0  0  0  0  0  0  0  0  0
   -0.1184    0.4667   -1.4448 H   0  0  0  0  0  0  0  0  0  0  0  0
    1.2287   -2.8744   -0.4392 H   0  0  0  0  0  0  0  0  0  0  0  0
    3.6292   -3.2897    0.0346 H   0  0  0  0  0  0  0  0  0  0  0  0
    5.2260   -1.3699    0.2195 H   0  0  0  0  0  0  0  0  0  0  0  0
    3.3560    3.0073    0.5595 H   0  0  0  0  0  0  0  0  0  0  0  0
    3.7006    2.9171   -1.2340 H   0  0  0  0  0  0  0  0  0  0  0  0
  1  2  1  0
  2  3  2  0
  3  4  1  0
  4  5  2  0
  5  6  1  0
  6  7  2  0
  7  8  1  0
  8  9  1  0
  9 10  1  0
 10 11  2  0
 11 12  1  0
 12 13  2  0
 13 14  1  0
 14 15  1  0
 15 16  1  0
 16 17  1  0
 17 18  1  0
  7  2  1  0
 18 10  1  0
 18 14  2  0
  3 19  1  0
  4 20  1  0
  5 21  1  0
  6 22  1  0
  8 23  1  0
  8 24  1  0
  9 25  1  0
  9 26  1  0
 11 27  1  0
 12 28  1  0
 13 29  1  0
 16 30  1  0
 16 31  1  0
M  RAD  1   1   3
M  END
$$$$
