
     RDKit          3D

 31 33  0  0  0  0  0  0  0  0999 V2000
   -2.7822   -1.6134   -1.7029 N   0  0  0  0  0  1  0  0  0  0  0  0
   -3.1685   -0.7460   -0.6389 C   0  0  0  0  0  0  0  0  0  0  0  0
   -4.5061   -0.3448   -0.5368 C   0  0  0  0  0  0  0  0  0  0  0  0
   -4.9067    0.5167    0.4872 C   0  0  0  0  0  0  0  0  0  0  0  0
   -3.9717    0.9857    1.4120 C   0  0  0  0  0  0  0  0  0  0  0  0
   -2.6345    0.5907    1.3184 C   0  0  0  0  0  0  0  0  0  0  0  0
   -2.2211   -0.2880    0.3018 C   0  0  0  0  0  0  0  0  0  0  0  0
   -0.7660   -0.6744    0.2009 C   0  0  0  0  0  0  0  0  0  0  0  0
   -0.0164    0.2858   -0.7271 C   0  0  0  0  0  0  0  0  0  0  0  0
    1.4343   -0.0962   -0.8213 C   0  0  0  0  0  0  0  0  0  0  0  0
    1.8931   -0.9971   -1.8078 C   0  0  0  0  0  0  0  0  0  0  0  0
    3.2539   -1.3726   -1.8557 C   0  0  0  0  0  0  0  0  0  0  0  0
    4.1656   -0.8625   -0.9142 C   0  0  0  0  0  0  0  0  0  0  0  0
    3.6786    0.0114    0.0535 C   0  0  0  0  0  0  0  0  0  0  0  0
    4.3685    0.6268    1.0801 O   0  0  0  0  0  0  0  0  0  0  0  0
    3.4383    1.4275    1.8220 C   0  0  0  0  0  0  0  0  0  0  0  0
    2.1775    1.2393    1.1652 O   0  0  0  0  0  0  0  0  0  0  0  0
    2.3715    0.3773    0.1017 C   0  0  0  0  0  0  0  0  0  0  0  0
   -5.2361   -0.6979   -1.2546 H   0  0  0  0  0  0  0  0  0  0  0  0
   -5.9416    0.8250    0.5608 H   0  0  0  0  0  0  0  0  0  0  0  0
   -4.2825    1.6590    2.2004 H   0  0  0  0  0  0  0  0  0  0  0  0
   -1.9201    0.9713    2.0381 H   0  0  0  0  0  0  0  0  0  0  0  0
   -0.2999   -0.6547    1.2112 H   0  0  0  0  0  0  0  0  0  0  0  0
   -0.6718   -1.7162   -0.1762 H   0  0  0  0  0  0  0  0  0  0  0  0
   -0.1053    1.3258   -0.3425 H   0  0  0  0  0  0  0  0  0  0  0  0
   -0.4750    0.2656   -1.7402 H   0  0  0  0  0  0  0  0  0  0  0  0
    1.2029   -1.4084   -2.5338 H   0  0  0  0  0  0  0  0  0  0  0  0
    3.5962   -2.0603   -2.6180 H   0  0  0  0  0  0  0  0  0  0  0  0
    5.2100   -1.1441   -0.9369 H   0  0  0  0  0  0  0  0  0  0  0  0
    3.7355    2.4964    1.7816 H   0  0  0  0  0  0  0  0  0  0  0  0
    3.3797    1.0724    2.8722 H   0  0  0  0  0  0  0  0  0  0  0  0
  1  2  1  0
  2  3  2  0
  3  4  1  0
  4  5  2  0
  5  6  1  0
  6  7  2  0
  7  8  1  0
  8  9  1  0
  9 10  1  0
 10 11  2  0
 11 12  1  0
 12 13  2  0
 13 14  1  0
 14 15  1  0
 15 16  1  0
 16 17  1  0
 17 18  1  0
  7  2  1  0
 18 10  1  0
 18 14  2  0
  3 19  1  0
  4 20  1  0
  5 21  1  0
  6 22  1  0
  8 23  1  0
  8 24  1  0
  9 25  1  0
  9 26  1  0
 11 27  1  0
 12 28  1  0
 13 29  1  0
 16 30  1  0
 16 31  1  0
M  RAD  1   1   3
M  END
$$$$
