
     RDKit          3D

 31 33  0  0  0  0  0  0  0  0999 V2000
   -1.1702   -1.5548    1.5227 N   0  0  0  0  0  1  0  0  0  0  0  0
   -1.6927   -0.3708    0.9240 C   0  0  0  0  0  0  0  0  0  0  0  0
   -2.0900    0.6890    1.7479 C   0  0  0  0  0  0  0  0  0  0  0  0
   -2.5893    1.8673    1.1887 C   0  0  0  0  0  0  0  0  0  0  0  0
   -2.6944    1.9934   -0.1975 C   0  0  0  0  0  0  0  0  0  0  0  0
   -2.2993    0.9421   -1.0286 C   0  0  0  0  0  0  0  0  0  0  0  0
   -1.7980   -0.2513   -0.4798 C   0  0  0  0  0  0  0  0  0  0  0  0
   -1.3140   -1.3436   -1.4071 C   0  0  0  0  0  0  0  0  0  0  0  0
    0.0889   -1.0459   -1.9563 C   0  0  0  0  0  0  0  0  0  0  0  0
    1.1265   -1.0393   -0.8653 C   0  0  0  0  0  0  0  0  0  0  0  0
    1.7289   -2.2366   -0.4201 C   0  0  0  0  0  0  0  0  0  0  0  0
    2.6538   -2.2178    0.6471 C   0  0  0  0  0  0  0  0  0  0  0  0
    2.9758   -1.0079    1.2877 C   0  0  0  0  0  0  0  0  0  0  0  0
    2.3559    0.1523    0.8332 C   0  0  0  0  0  0  0  0  0  0  0  0
    2.4900    1.4415    1.3111 O   0  0  0  0  0  0  0  0  0  0  0  0
    1.6328    2.2925    0.5379 C   0  0  0  0  0  0  0  0  0  0  0  0
    1.0099    1.4243   -0.4177 O   0  0  0  0  0  0  0  0  0  0  0  0
    1.4730    0.1402   -0.1984 C   0  0  0  0  0  0  0  0  0  0  0  0
   -2.0067    0.6017    2.8239 H   0  0  0  0  0  0  0  0  0  0  0  0
   -2.8921    2.6846    1.8305 H   0  0  0  0  0  0  0  0  0  0  0  0
   -3.0769    2.9093   -0.6292 H   0  0  0  0  0  0  0  0  0  0  0  0
   -2.3733    1.0614   -2.1025 H   0  0  0  0  0  0  0  0  0  0  0  0
   -2.0182   -1.4301   -2.2631 H   0  0  0  0  0  0  0  0  0  0  0  0
   -1.3182   -2.3331   -0.9013 H   0  0  0  0  0  0  0  0  0  0  0  0
    0.0869   -0.0707   -2.4909 H   0  0  0  0  0  0  0  0  0  0  0  0
    0.3518   -1.8221   -2.7074 H   0  0  0  0  0  0  0  0  0  0  0  0
    1.4788   -3.1796   -0.8898 H   0  0  0  0  0  0  0  0  0  0  0  0
    3.1107   -3.1407    0.9799 H   0  0  0  0  0  0  0  0  0  0  0  0
    3.6758   -0.9802    2.1122 H   0  0  0  0  0  0  0  0  0  0  0  0
    0.8630    2.7554    1.1906 H   0  0  0  0  0  0  0  0  0  0  0  0
    2.2309    3.0695    0.0175 H   0  0  0  0  0  0  0  0  0  0  0  0
  1  2  1  0
  2  3  2  0
  3  4  1  0
  4  5  2  0
  5  6  1  0
  6  7  2  0
  7  8  1  0
  8  9  1  0
  9 10  1  0
 10 11  2  0
 11 12  1  0
 12 13  2  0
 13 14  1  0
 14 15  1  0
 15 16  1  0
 16 17  1  0
 17 18  1  0
  7  2  1  0
 18 10  1  0
 18 14  2  0
  3 19  1  0
  4 20  1  0
  5 21  1  0
  6 22  1  0
  8 23  1  0
  8 24  1  0
  9 25  1  0
  9 26  1  0
 11 27  1  0
 12 28  1  0
 13 29  1  0
 16 30  1  0
 16 31  1  0
M  RAD  1   1   3
M  END
$$$$
