
     RDKit          3D

 31 33  0  0  0  0  0  0  0  0999 V2000
   -2.9284   -2.1542   -0.0713 N   0  0  0  0  0  1  0  0  0  0  0  0
   -3.2275   -0.7648    0.0453 C   0  0  0  0  0  0  0  0  0  0  0  0
   -4.5256   -0.3730    0.3948 C   0  0  0  0  0  0  0  0  0  0  0  0
   -4.8399    0.9813    0.5306 C   0  0  0  0  0  0  0  0  0  0  0  0
   -3.8574    1.9512    0.3225 C   0  0  0  0  0  0  0  0  0  0  0  0
   -2.5591    1.5700   -0.0268 C   0  0  0  0  0  0  0  0  0  0  0  0
   -2.2333    0.2112   -0.1817 C   0  0  0  0  0  0  0  0  0  0  0  0
   -0.8170   -0.1779   -0.5269 C   0  0  0  0  0  0  0  0  0  0  0  0
   -0.0018   -0.4290    0.7450 C   0  0  0  0  0  0  0  0  0  0  0  0
    1.4107   -0.8100    0.3998 C   0  0  0  0  0  0  0  0  0  0  0  0
    1.7801   -2.1596    0.2068 C   0  0  0  0  0  0  0  0  0  0  0  0
    3.1041   -2.4938   -0.1542 C   0  0  0  0  0  0  0  0  0  0  0  0
    4.0671   -1.4853   -0.3369 C   0  0  0  0  0  0  0  0  0  0  0  0
    3.6672   -0.1649   -0.1534 C   0  0  0  0  0  0  0  0  0  0  0  0
    4.4191    0.9865   -0.2859 O   0  0  0  0  0  0  0  0  0  0  0  0
    3.5685    2.1064   -0.0048 C   0  0  0  0  0  0  0  0  0  0  0  0
    2.2880    1.5357    0.2972 O   0  0  0  0  0  0  0  0  0  0  0  0
    2.3958    0.1609    0.1964 C   0  0  0  0  0  0  0  0  0  0  0  0
   -5.2915   -1.1193    0.5655 H   0  0  0  0  0  0  0  0  0  0  0  0
   -5.8445    1.2787    0.8024 H   0  0  0  0  0  0  0  0  0  0  0  0
   -4.1010    2.9998    0.4354 H   0  0  0  0  0  0  0  0  0  0  0  0
   -1.8065    2.3346   -0.1753 H   0  0  0  0  0  0  0  0  0  0  0  0
   -0.3381    0.6314   -1.1217 H   0  0  0  0  0  0  0  0  0  0  0  0
   -0.8148   -1.0892   -1.1640 H   0  0  0  0  0  0  0  0  0  0  0  0
   -0.4733   -1.2413    1.3406 H   0  0  0  0  0  0  0  0  0  0  0  0
    0.0014    0.4872    1.3759 H   0  0  0  0  0  0  0  0  0  0  0  0
    1.0488   -2.9483    0.3324 H   0  0  0  0  0  0  0  0  0  0  0  0
    3.3781   -3.5311   -0.2957 H   0  0  0  0  0  0  0  0  0  0  0  0
    5.0841   -1.7266   -0.6168 H   0  0  0  0  0  0  0  0  0  0  0  0
    3.9531    2.6694    0.8713 H   0  0  0  0  0  0  0  0  0  0  0  0
    3.4938    2.7640   -0.8961 H   0  0  0  0  0  0  0  0  0  0  0  0
  1  2  1  0
  2  3  2  0
  3  4  1  0
  4  5  2  0
  5  6  1  0
  6  7  2  0
  7  8  1  0
  8  9  1  0
  9 10  1  0
 10 11  2  0
 11 12  1  0
 12 13  2  0
 13 14  1  0
 14 15  1  0
 15 16  1  0
 16 17  1  0
 17 18  1  0
  7  2  1  0
 18 10  1  0
 18 14  2  0
  3 19  1  0
  4 20  1  0
  5 21  1  0
  6 22  1  0
  8 23  1  0
  8 24  1  0
  9 25  1  0
  9 26  1  0
 11 27  1  0
 12 28  1  0
 13 29  1  0
 16 30  1  0
 16 31  1  0
M  RAD  1   1   3
M  END
$$$$
