
     RDKit          3D

 31 33  0  0  0  0  0  0  0  0999 V2000
   -2.5550   -2.5733   -0.2091 N   0  0  0  0  0  1  0  0  0  0  0  0
   -3.0594   -1.2820    0.1252 C   0  0  0  0  0  0  0  0  0  0  0  0
   -4.4314   -1.0320    0.0010 C   0  0  0  0  0  0  0  0  0  0  0  0
   -4.9480    0.2292    0.3074 C   0  0  0  0  0  0  0  0  0  0  0  0
   -4.0954    1.2488    0.7351 C   0  0  0  0  0  0  0  0  0  0  0  0
   -2.7246    1.0087    0.8625 C   0  0  0  0  0  0  0  0  0  0  0  0
   -2.1939   -0.2604    0.5720 C   0  0  0  0  0  0  0  0  0  0  0  0
   -0.7064   -0.4866    0.6850 C   0  0  0  0  0  0  0  0  0  0  0  0
   -0.0165   -0.2141   -0.6547 C   0  0  0  0  0  0  0  0  0  0  0  0
    1.4661   -0.4333   -0.5389 C   0  0  0  0  0  0  0  0  0  0  0  0
    2.0429   -1.6972   -0.7934 C   0  0  0  0  0  0  0  0  0  0  0  0
    3.4337   -1.8920   -0.6423 C   0  0  0  0  0  0  0  0  0  0  0  0
    4.2586   -0.8320   -0.2252 C   0  0  0  0  0  0  0  0  0  0  0  0
    3.6570    0.3965    0.0314 C   0  0  0  0  0  0  0  0  0  0  0  0
    4.2483    1.5697    0.4587 O   0  0  0  0  0  0  0  0  0  0  0  0
    3.2208    2.5613    0.5919 C   0  0  0  0  0  0  0  0  0  0  0  0
    2.0079    1.8943    0.2169 O   0  0  0  0  0  0  0  0  0  0  0  0
    2.3205    0.5890   -0.1152 C   0  0  0  0  0  0  0  0  0  0  0  0
   -5.0985   -1.8150   -0.3375 H   0  0  0  0  0  0  0  0  0  0  0  0
   -6.0092    0.4177    0.2082 H   0  0  0  0  0  0  0  0  0  0  0  0
   -4.4965    2.2274    0.9650 H   0  0  0  0  0  0  0  0  0  0  0  0
   -2.0758    1.8133    1.1863 H   0  0  0  0  0  0  0  0  0  0  0  0
   -0.5015   -1.5296    1.0112 H   0  0  0  0  0  0  0  0  0  0  0  0
   -0.2815    0.1836    1.4651 H   0  0  0  0  0  0  0  0  0  0  0  0
   -0.2162    0.8326   -0.9740 H   0  0  0  0  0  0  0  0  0  0  0  0
   -0.4338   -0.8858   -1.4369 H   0  0  0  0  0  0  0  0  0  0  0  0
    1.4213   -2.5275   -1.1045 H   0  0  0  0  0  0  0  0  0  0  0  0
    3.8665   -2.8632   -0.8437 H   0  0  0  0  0  0  0  0  0  0  0  0
    5.3249   -0.9679   -0.1020 H   0  0  0  0  0  0  0  0  0  0  0  0
    3.4179    3.4118   -0.0939 H   0  0  0  0  0  0  0  0  0  0  0  0
    3.1572    2.9082    1.6446 H   0  0  0  0  0  0  0  0  0  0  0  0
  1  2  1  0
  2  3  2  0
  3  4  1  0
  4  5  2  0
  5  6  1  0
  6  7  2  0
  7  8  1  0
  8  9  1  0
  9 10  1  0
 10 11  2  0
 11 12  1  0
 12 13  2  0
 13 14  1  0
 14 15  1  0
 15 16  1  0
 16 17  1  0
 17 18  1  0
  7  2  1  0
 18 10  1  0
 18 14  2  0
  3 19  1  0
  4 20  1  0
  5 21  1  0
  6 22  1  0
  8 23  1  0
  8 24  1  0
  9 25  1  0
  9 26  1  0
 11 27  1  0
 12 28  1  0
 13 29  1  0
 16 30  1  0
 16 31  1  0
M  RAD  1   1   3
M  END
$$$$
