
     RDKit          3D

 31 33  0  0  0  0  0  0  0  0999 V2000
   -0.8791   -2.8157   -2.1029 N   0  0  0  0  0  1  0  0  0  0  0  0
   -1.3648   -1.5206   -1.7565 C   0  0  0  0  0  0  0  0  0  0  0  0
   -1.7479   -0.6401   -2.7753 C   0  0  0  0  0  0  0  0  0  0  0  0
   -2.2121    0.6396   -2.4626 C   0  0  0  0  0  0  0  0  0  0  0  0
   -2.2977    1.0458   -1.1297 C   0  0  0  0  0  0  0  0  0  0  0  0
   -1.9202    0.1734   -0.1059 C   0  0  0  0  0  0  0  0  0  0  0  0
   -1.4524   -1.1185   -0.4065 C   0  0  0  0  0  0  0  0  0  0  0  0
   -0.9806   -2.0192    0.7124 C   0  0  0  0  0  0  0  0  0  0  0  0
    0.5454   -1.9720    0.8798 C   0  0  0  0  0  0  0  0  0  0  0  0
    1.0187   -0.6040    1.2953 C   0  0  0  0  0  0  0  0  0  0  0  0
    1.0053   -0.2042    2.6497 C   0  0  0  0  0  0  0  0  0  0  0  0
    1.3935    1.1043    3.0128 C   0  0  0  0  0  0  0  0  0  0  0  0
    1.7847    2.0290    2.0279 C   0  0  0  0  0  0  0  0  0  0  0  0
    1.7743    1.6079    0.7015 C   0  0  0  0  0  0  0  0  0  0  0  0
    2.0896    2.3319   -0.4321 O   0  0  0  0  0  0  0  0  0  0  0  0
    1.9054    1.4777   -1.5693 C   0  0  0  0  0  0  0  0  0  0  0  0
    1.4804    0.2210   -1.0262 O   0  0  0  0  0  0  0  0  0  0  0  0
    1.4108    0.3480    0.3488 C   0  0  0  0  0  0  0  0  0  0  0  0
   -1.6804   -0.9456   -3.8119 H   0  0  0  0  0  0  0  0  0  0  0  0
   -2.5025    1.3181   -3.2542 H   0  0  0  0  0  0  0  0  0  0  0  0
   -2.6513    2.0401   -0.8895 H   0  0  0  0  0  0  0  0  0  0  0  0
   -1.9762    0.5112    0.9216 H   0  0  0  0  0  0  0  0  0  0  0  0
   -1.4680   -1.7358    1.6714 H   0  0  0  0  0  0  0  0  0  0  0  0
   -1.2892   -3.0659    0.5028 H   0  0  0  0  0  0  0  0  0  0  0  0
    1.0411   -2.2789   -0.0668 H   0  0  0  0  0  0  0  0  0  0  0  0
    0.8441   -2.7132    1.6526 H   0  0  0  0  0  0  0  0  0  0  0  0
    0.6898   -0.8976    3.4192 H   0  0  0  0  0  0  0  0  0  0  0  0
    1.3815    1.4002    4.0537 H   0  0  0  0  0  0  0  0  0  0  0  0
    2.0758    3.0373    2.2910 H   0  0  0  0  0  0  0  0  0  0  0  0
    2.8634    1.3548   -2.1164 H   0  0  0  0  0  0  0  0  0  0  0  0
    1.1185    1.8908   -2.2349 H   0  0  0  0  0  0  0  0  0  0  0  0
  1  2  1  0
  2  3  2  0
  3  4  1  0
  4  5  2  0
  5  6  1  0
  6  7  2  0
  7  8  1  0
  8  9  1  0
  9 10  1  0
 10 11  2  0
 11 12  1  0
 12 13  2  0
 13 14  1  0
 14 15  1  0
 15 16  1  0
 16 17  1  0
 17 18  1  0
  7  2  1  0
 18 10  1  0
 18 14  2  0
  3 19  1  0
  4 20  1  0
  5 21  1  0
  6 22  1  0
  8 23  1  0
  8 24  1  0
  9 25  1  0
  9 26  1  0
 11 27  1  0
 12 28  1  0
 13 29  1  0
 16 30  1  0
 16 31  1  0
M  RAD  1   1   3
M  END
$$$$
