
     RDKit          3D

 31 33  0  0  0  0  0  0  0  0999 V2000
    2.2353    2.8498   -0.0772 N   0  0  0  0  0  1  0  0  0  0  0  0
    2.1620    1.5366    0.4738 C   0  0  0  0  0  0  0  0  0  0  0  0
    2.4481    1.3491    1.8314 C   0  0  0  0  0  0  0  0  0  0  0  0
    2.3681    0.0751    2.3986 C   0  0  0  0  0  0  0  0  0  0  0  0
    2.0036   -1.0188    1.6116 C   0  0  0  0  0  0  0  0  0  0  0  0
    1.7188   -0.8421    0.2553 C   0  0  0  0  0  0  0  0  0  0  0  0
    1.7968    0.4349   -0.3290 C   0  0  0  0  0  0  0  0  0  0  0  0
    1.4136    0.6148   -1.7804 C   0  0  0  0  0  0  0  0  0  0  0  0
   -0.0339    1.1051   -1.9333 C   0  0  0  0  0  0  0  0  0  0  0  0
   -1.0230    0.0906   -1.4232 C   0  0  0  0  0  0  0  0  0  0  0  0
   -1.4563   -0.9818   -2.2335 C   0  0  0  0  0  0  0  0  0  0  0  0
   -2.3358   -1.9587   -1.7166 C   0  0  0  0  0  0  0  0  0  0  0  0
   -2.7793   -1.8822   -0.3841 C   0  0  0  0  0  0  0  0  0  0  0  0
   -2.3235   -0.8206    0.3919 C   0  0  0  0  0  0  0  0  0  0  0  0
   -2.5959   -0.5472    1.7184 O   0  0  0  0  0  0  0  0  0  0  0  0
   -1.8786    0.6401    2.0828 C   0  0  0  0  0  0  0  0  0  0  0  0
   -1.1908    1.0404    0.8905 O   0  0  0  0  0  0  0  0  0  0  0  0
   -1.4855    0.1258   -0.1038 C   0  0  0  0  0  0  0  0  0  0  0  0
    2.7273    2.1929    2.4500 H   0  0  0  0  0  0  0  0  0  0  0  0
    2.5857   -0.0636    3.4496 H   0  0  0  0  0  0  0  0  0  0  0  0
    1.9356   -2.0041    2.0542 H   0  0  0  0  0  0  0  0  0  0  0  0
    1.4203   -1.6988   -0.3364 H   0  0  0  0  0  0  0  0  0  0  0  0
    1.5430   -0.3392   -2.3379 H   0  0  0  0  0  0  0  0  0  0  0  0
    2.0968    1.3501   -2.2573 H   0  0  0  0  0  0  0  0  0  0  0  0
   -0.2334    1.3025   -3.0089 H   0  0  0  0  0  0  0  0  0  0  0  0
   -0.1658    2.0719   -1.4004 H   0  0  0  0  0  0  0  0  0  0  0  0
   -1.1106   -1.0661   -3.2561 H   0  0  0  0  0  0  0  0  0  0  0  0
   -2.6634   -2.7755   -2.3463 H   0  0  0  0  0  0  0  0  0  0  0  0
   -3.4458   -2.6285    0.0276 H   0  0  0  0  0  0  0  0  0  0  0  0
   -2.5863    1.4335    2.4021 H   0  0  0  0  0  0  0  0  0  0  0  0
   -1.1471    0.4138    2.8868 H   0  0  0  0  0  0  0  0  0  0  0  0
  1  2  1  0
  2  3  2  0
  3  4  1  0
  4  5  2  0
  5  6  1  0
  6  7  2  0
  7  8  1  0
  8  9  1  0
  9 10  1  0
 10 11  2  0
 11 12  1  0
 12 13  2  0
 13 14  1  0
 14 15  1  0
 15 16  1  0
 16 17  1  0
 17 18  1  0
  7  2  1  0
 18 10  1  0
 18 14  2  0
  3 19  1  0
  4 20  1  0
  5 21  1  0
  6 22  1  0
  8 23  1  0
  8 24  1  0
  9 25  1  0
  9 26  1  0
 11 27  1  0
 12 28  1  0
 13 29  1  0
 16 30  1  0
 16 31  1  0
M  RAD  1   1   3
M  END
$$$$
