
     RDKit          3D

 25 26  0  0  0  0  0  0  0  0999 V2000
    1.6622   -2.7615   -0.6058 N   0  0  0  0  0  1  0  0  0  0  0  0
    1.7735   -1.4982    0.0463 C   0  0  0  0  0  0  0  0  0  0  0  0
    2.4599   -1.4167    1.2640 C   0  0  0  0  0  0  0  0  0  0  0  0
    2.5741   -0.1928    1.9274 C   0  0  0  0  0  0  0  0  0  0  0  0
    2.0018    0.9561    1.3783 C   0  0  0  0  0  0  0  0  0  0  0  0
    1.3164    0.8850    0.1628 C   0  0  0  0  0  0  0  0  0  0  0  0
    1.2000   -0.3393   -0.5192 C   0  0  0  0  0  0  0  0  0  0  0  0
    0.4174   -0.4017   -1.8112 C   0  0  0  0  0  0  0  0  0  0  0  0
   -1.0218   -0.8807   -1.5838 C   0  0  0  0  0  0  0  0  0  0  0  0
   -1.8049    0.1013   -0.7666 C   0  0  0  0  0  0  0  0  0  0  0  0
   -2.0336    0.0208    0.5924 C   0  0  0  0  0  0  0  0  0  0  0  0
   -2.7573    1.1489    0.9125 C   0  0  0  0  0  0  0  0  0  0  0  0
   -2.9226    1.8461   -0.2677 C   0  0  0  0  0  0  0  0  0  0  0  0
   -2.3415    1.1973   -1.2506 O   0  0  0  0  0  0  0  0  0  0  0  0
    2.9028   -2.3039    1.6990 H   0  0  0  0  0  0  0  0  0  0  0  0
    3.1037   -0.1357    2.8696 H   0  0  0  0  0  0  0  0  0  0  0  0
    2.0860    1.9024    1.8967 H   0  0  0  0  0  0  0  0  0  0  0  0
    0.8683    1.7837   -0.2430 H   0  0  0  0  0  0  0  0  0  0  0  0
    0.9214   -1.0946   -2.5188 H   0  0  0  0  0  0  0  0  0  0  0  0
    0.4038    0.5946   -2.3064 H   0  0  0  0  0  0  0  0  0  0  0  0
   -1.0214   -1.8750   -1.0864 H   0  0  0  0  0  0  0  0  0  0  0  0
   -1.5216   -0.9992   -2.5688 H   0  0  0  0  0  0  0  0  0  0  0  0
   -1.7028   -0.7564    1.2687 H   0  0  0  0  0  0  0  0  0  0  0  0
   -3.1177    1.4336    1.8918 H   0  0  0  0  0  0  0  0  0  0  0  0
   -3.4461    2.7859   -0.3812 H   0  0  0  0  0  0  0  0  0  0  0  0
  1  2  1  0
  2  3  2  0
  3  4  1  0
  4  5  2  0
  5  6  1  0
  6  7  2  0
  7  8  1  0
  8  9  1  0
  9 10  1  0
 10 11  2  0
 11 12  1  0
 12 13  2  0
 13 14  1  0
  7  2  1  0
 14 10  1  0
  3 15  1  0
  4 16  1  0
  5 17  1  0
  6 18  1  0
  8 19  1  0
  8 20  1  0
  9 21  1  0
  9 22  1  0
 11 23  1  0
 12 24  1  0
 13 25  1  0
M  RAD  1   1   3
M  END
$$$$
