
     RDKit          3D

 25 26  0  0  0  0  0  0  0  0999 V2000
    1.3512    0.4366    2.5502 N   0  0  0  0  0  1  0  0  0  0  0  0
    2.0667    0.1280    1.3559 C   0  0  0  0  0  0  0  0  0  0  0  0
    3.4483    0.3505    1.3113 C   0  0  0  0  0  0  0  0  0  0  0  0
    4.1696    0.0706    0.1483 C   0  0  0  0  0  0  0  0  0  0  0  0
    3.5131   -0.4287   -0.9782 C   0  0  0  0  0  0  0  0  0  0  0  0
    2.1343   -0.6543   -0.9433 C   0  0  0  0  0  0  0  0  0  0  0  0
    1.3990   -0.3911    0.2257 C   0  0  0  0  0  0  0  0  0  0  0  0
   -0.0939   -0.6117    0.2294 C   0  0  0  0  0  0  0  0  0  0  0  0
   -0.8286    0.6698   -0.1713 C   0  0  0  0  0  0  0  0  0  0  0  0
   -2.3082    0.4482   -0.1647 C   0  0  0  0  0  0  0  0  0  0  0  0
   -3.0600   -0.0184   -1.2242 C   0  0  0  0  0  0  0  0  0  0  0  0
   -4.3537   -0.0919   -0.7548 C   0  0  0  0  0  0  0  0  0  0  0  0
   -4.3094    0.3288    0.5595 C   0  0  0  0  0  0  0  0  0  0  0  0
   -3.0755    0.6413    0.8830 O   0  0  0  0  0  0  0  0  0  0  0  0
    3.9639    0.7448    2.1781 H   0  0  0  0  0  0  0  0  0  0  0  0
    5.2373    0.2458    0.1186 H   0  0  0  0  0  0  0  0  0  0  0  0
    4.0724   -0.6382   -1.8809 H   0  0  0  0  0  0  0  0  0  0  0  0
    1.6391   -1.0332   -1.8289 H   0  0  0  0  0  0  0  0  0  0  0  0
   -0.4296   -0.9416    1.2369 H   0  0  0  0  0  0  0  0  0  0  0  0
   -0.3562   -1.4275   -0.4805 H   0  0  0  0  0  0  0  0  0  0  0  0
   -0.5073    0.9885   -1.1871 H   0  0  0  0  0  0  0  0  0  0  0  0
   -0.5835    1.4855    0.5428 H   0  0  0  0  0  0  0  0  0  0  0  0
   -2.7088   -0.2784   -2.2141 H   0  0  0  0  0  0  0  0  0  0  0  0
   -5.2268   -0.4180   -1.3039 H   0  0  0  0  0  0  0  0  0  0  0  0
   -5.1531    0.3945    1.2333 H   0  0  0  0  0  0  0  0  0  0  0  0
  1  2  1  0
  2  3  2  0
  3  4  1  0
  4  5  2  0
  5  6  1  0
  6  7  2  0
  7  8  1  0
  8  9  1  0
  9 10  1  0
 10 11  2  0
 11 12  1  0
 12 13  2  0
 13 14  1  0
  7  2  1  0
 14 10  1  0
  3 15  1  0
  4 16  1  0
  5 17  1  0
  6 18  1  0
  8 19  1  0
  8 20  1  0
  9 21  1  0
  9 22  1  0
 11 23  1  0
 12 24  1  0
 13 25  1  0
M  RAD  1   1   3
M  END
$$$$
