
     RDKit          3D

 25 26  0  0  0  0  0  0  0  0999 V2000
    1.6369   -1.6693   -1.7800 N   0  0  0  0  0  1  0  0  0  0  0  0
    2.2129   -0.7751   -0.8301 C   0  0  0  0  0  0  0  0  0  0  0  0
    3.5644   -0.4292   -0.9507 C   0  0  0  0  0  0  0  0  0  0  0  0
    4.1484    0.4564   -0.0420 C   0  0  0  0  0  0  0  0  0  0  0  0
    3.3838    1.0048    0.9895 C   0  0  0  0  0  0  0  0  0  0  0  0
    2.0343    0.6654    1.1182 C   0  0  0  0  0  0  0  0  0  0  0  0
    1.4379   -0.2364    0.2195 C   0  0  0  0  0  0  0  0  0  0  0  0
   -0.0289   -0.5628    0.3587 C   0  0  0  0  0  0  0  0  0  0  0  0
   -0.8753    0.3890   -0.4899 C   0  0  0  0  0  0  0  0  0  0  0  0
   -2.3286    0.0614   -0.3511 C   0  0  0  0  0  0  0  0  0  0  0  0
   -3.1808    0.5609    0.6130 C   0  0  0  0  0  0  0  0  0  0  0  0
   -4.4000   -0.0353    0.3728 C   0  0  0  0  0  0  0  0  0  0  0  0
   -4.2143   -0.8625   -0.7169 C   0  0  0  0  0  0  0  0  0  0  0  0
   -2.9681   -0.7853   -1.1242 O   0  0  0  0  0  0  0  0  0  0  0  0
    4.1625   -0.8442   -1.7524 H   0  0  0  0  0  0  0  0  0  0  0  0
    5.1931    0.7217   -0.1405 H   0  0  0  0  0  0  0  0  0  0  0  0
    3.8363    1.6963    1.6885 H   0  0  0  0  0  0  0  0  0  0  0  0
    1.4532    1.1070    1.9185 H   0  0  0  0  0  0  0  0  0  0  0  0
   -0.2179   -1.6145    0.0509 H   0  0  0  0  0  0  0  0  0  0  0  0
   -0.3339   -0.4800    1.4257 H   0  0  0  0  0  0  0  0  0  0  0  0
   -0.5868    0.3002   -1.5596 H   0  0  0  0  0  0  0  0  0  0  0  0
   -0.7010    1.4393   -0.1685 H   0  0  0  0  0  0  0  0  0  0  0  0
   -2.9427    1.2673    1.3973 H   0  0  0  0  0  0  0  0  0  0  0  0
   -5.3161    0.1117    0.9288 H   0  0  0  0  0  0  0  0  0  0  0  0
   -4.9694   -1.4867   -1.1756 H   0  0  0  0  0  0  0  0  0  0  0  0
  1  2  1  0
  2  3  2  0
  3  4  1  0
  4  5  2  0
  5  6  1  0
  6  7  2  0
  7  8  1  0
  8  9  1  0
  9 10  1  0
 10 11  2  0
 11 12  1  0
 12 13  2  0
 13 14  1  0
  7  2  1  0
 14 10  1  0
  3 15  1  0
  4 16  1  0
  5 17  1  0
  6 18  1  0
  8 19  1  0
  8 20  1  0
  9 21  1  0
  9 22  1  0
 11 23  1  0
 12 24  1  0
 13 25  1  0
M  RAD  1   1   3
M  END
$$$$
