
     RDKit          3D

 25 26  0  0  0  0  0  0  0  0999 V2000
   -1.6118    2.4228    0.5015 N   0  0  0  0  0  1  0  0  0  0  0  0
   -2.2012    1.1408    0.2944 C   0  0  0  0  0  0  0  0  0  0  0  0
   -3.5566    1.0601   -0.0475 C   0  0  0  0  0  0  0  0  0  0  0  0
   -4.1538   -0.1829   -0.2704 C   0  0  0  0  0  0  0  0  0  0  0  0
   -3.3984   -1.3517   -0.1575 C   0  0  0  0  0  0  0  0  0  0  0  0
   -2.0450   -1.2812    0.1834 C   0  0  0  0  0  0  0  0  0  0  0  0
   -1.4352   -0.0376    0.4252 C   0  0  0  0  0  0  0  0  0  0  0  0
    0.0352    0.0158    0.7602 C   0  0  0  0  0  0  0  0  0  0  0  0
    0.8714    0.1820   -0.5109 C   0  0  0  0  0  0  0  0  0  0  0  0
    2.3283    0.2366   -0.1752 C   0  0  0  0  0  0  0  0  0  0  0  0
    3.1721   -0.8498   -0.0602 C   0  0  0  0  0  0  0  0  0  0  0  0
    4.3993   -0.3287    0.2894 C   0  0  0  0  0  0  0  0  0  0  0  0
    4.2264    1.0387    0.3702 C   0  0  0  0  0  0  0  0  0  0  0  0
    2.9802    1.3448    0.0906 O   0  0  0  0  0  0  0  0  0  0  0  0
   -4.1477    1.9622   -0.1445 H   0  0  0  0  0  0  0  0  0  0  0  0
   -5.2015   -0.2397   -0.5358 H   0  0  0  0  0  0  0  0  0  0  0  0
   -3.8611   -2.3134   -0.3377 H   0  0  0  0  0  0  0  0  0  0  0  0
   -1.4712   -2.1969    0.2577 H   0  0  0  0  0  0  0  0  0  0  0  0
    0.3369   -0.9188    1.2835 H   0  0  0  0  0  0  0  0  0  0  0  0
    0.2382    0.8560    1.4597 H   0  0  0  0  0  0  0  0  0  0  0  0
    0.5863    1.1220   -1.0311 H   0  0  0  0  0  0  0  0  0  0  0  0
    0.6831   -0.6687   -1.2019 H   0  0  0  0  0  0  0  0  0  0  0  0
    2.9234   -1.8926   -0.2071 H   0  0  0  0  0  0  0  0  0  0  0  0
    5.3123   -0.8803    0.4688 H   0  0  0  0  0  0  0  0  0  0  0  0
    4.9904    1.7607    0.6255 H   0  0  0  0  0  0  0  0  0  0  0  0
  1  2  1  0
  2  3  2  0
  3  4  1  0
  4  5  2  0
  5  6  1  0
  6  7  2  0
  7  8  1  0
  8  9  1  0
  9 10  1  0
 10 11  2  0
 11 12  1  0
 12 13  2  0
 13 14  1  0
  7  2  1  0
 14 10  1  0
  3 15  1  0
  4 16  1  0
  5 17  1  0
  6 18  1  0
  8 19  1  0
  8 20  1  0
  9 21  1  0
  9 22  1  0
 11 23  1  0
 12 24  1  0
 13 25  1  0
M  RAD  1   1   3
M  END
$$$$
