
     RDKit          3D

 25 26  0  0  0  0  0  0  0  0999 V2000
   -1.4784    0.9521    2.3541 N   0  0  0  0  0  1  0  0  0  0  0  0
   -2.1358    0.5110    1.1680 C   0  0  0  0  0  0  0  0  0  0  0  0
   -3.4855    0.8307    0.9767 C   0  0  0  0  0  0  0  0  0  0  0  0
   -4.1481    0.4233   -0.1836 C   0  0  0  0  0  0  0  0  0  0  0  0
   -3.4641   -0.3018   -1.1611 C   0  0  0  0  0  0  0  0  0  0  0  0
   -2.1169   -0.6259   -0.9791 C   0  0  0  0  0  0  0  0  0  0  0  0
   -1.4422   -0.2350    0.1908 C   0  0  0  0  0  0  0  0  0  0  0  0
    0.0209   -0.5683    0.3507 C   0  0  0  0  0  0  0  0  0  0  0  0
    0.8939    0.5699   -0.1832 C   0  0  0  0  0  0  0  0  0  0  0  0
    2.3436    0.2373   -0.0213 C   0  0  0  0  0  0  0  0  0  0  0  0
    3.1206   -0.4523   -0.9303 C   0  0  0  0  0  0  0  0  0  0  0  0
    4.3674   -0.5497   -0.3511 C   0  0  0  0  0  0  0  0  0  0  0  0
    4.2718    0.0806    0.8736 C   0  0  0  0  0  0  0  0  0  0  0  0
    3.0520    0.5369    1.0426 O   0  0  0  0  0  0  0  0  0  0  0  0
   -4.0213    1.3993    1.7266 H   0  0  0  0  0  0  0  0  0  0  0  0
   -5.1911    0.6743   -0.3272 H   0  0  0  0  0  0  0  0  0  0  0  0
   -3.9772   -0.6104   -2.0628 H   0  0  0  0  0  0  0  0  0  0  0  0
   -1.5987   -1.1808   -1.7515 H   0  0  0  0  0  0  0  0  0  0  0  0
    0.2561   -0.7559    1.4212 H   0  0  0  0  0  0  0  0  0  0  0  0
    0.2563   -1.5063   -0.1998 H   0  0  0  0  0  0  0  0  0  0  0  0
    0.6753    1.5072    0.3728 H   0  0  0  0  0  0  0  0  0  0  0  0
    0.6727    0.7441   -1.2591 H   0  0  0  0  0  0  0  0  0  0  0  0
    2.8157   -0.8409   -1.8930 H   0  0  0  0  0  0  0  0  0  0  0  0
    5.2429   -1.0277   -0.7697 H   0  0  0  0  0  0  0  0  0  0  0  0
    5.0701    0.1885    1.5956 H   0  0  0  0  0  0  0  0  0  0  0  0
  1  2  1  0
  2  3  2  0
  3  4  1  0
  4  5  2  0
  5  6  1  0
  6  7  2  0
  7  8  1  0
  8  9  1  0
  9 10  1  0
 10 11  2  0
 11 12  1  0
 12 13  2  0
 13 14  1  0
  7  2  1  0
 14 10  1  0
  3 15  1  0
  4 16  1  0
  5 17  1  0
  6 18  1  0
  8 19  1  0
  8 20  1  0
  9 21  1  0
  9 22  1  0
 11 23  1  0
 12 24  1  0
 13 25  1  0
M  RAD  1   1   3
M  END
$$$$
