
     RDKit          3D

 25 26  0  0  0  0  0  0  0  0999 V2000
    1.5132   -1.4325    2.0719 N   0  0  0  0  0  1  0  0  0  0  0  0
    2.1471   -0.5998    1.1032 C   0  0  0  0  0  0  0  0  0  0  0  0
    3.4667   -0.1844    1.3193 C   0  0  0  0  0  0  0  0  0  0  0  0
    4.1049    0.6438    0.3930 C   0  0  0  0  0  0  0  0  0  0  0  0
    3.4262    1.0652   -0.7520 C   0  0  0  0  0  0  0  0  0  0  0  0
    2.1091    0.6557   -0.9765 C   0  0  0  0  0  0  0  0  0  0  0  0
    1.4601   -0.1900   -0.0598 C   0  0  0  0  0  0  0  0  0  0  0  0
    0.0269   -0.5928   -0.3070 C   0  0  0  0  0  0  0  0  0  0  0  0
   -0.9327    0.3906    0.3672 C   0  0  0  0  0  0  0  0  0  0  0  0
   -2.3525   -0.0126    0.1218 C   0  0  0  0  0  0  0  0  0  0  0  0
   -3.1233    0.3622   -0.9602 C   0  0  0  0  0  0  0  0  0  0  0  0
   -4.3378   -0.2648   -0.7831 C   0  0  0  0  0  0  0  0  0  0  0  0
   -4.2304   -0.9847    0.3901 C   0  0  0  0  0  0  0  0  0  0  0  0
   -3.0339   -0.8165    0.9049 O   0  0  0  0  0  0  0  0  0  0  0  0
    3.9977   -0.5005    2.2085 H   0  0  0  0  0  0  0  0  0  0  0  0
    5.1246    0.9632    0.5654 H   0  0  0  0  0  0  0  0  0  0  0  0
    3.9199    1.7127   -1.4651 H   0  0  0  0  0  0  0  0  0  0  0  0
    1.5938    0.9993   -1.8652 H   0  0  0  0  0  0  0  0  0  0  0  0
   -0.1745   -0.6171   -1.4012 H   0  0  0  0  0  0  0  0  0  0  0  0
   -0.1533   -1.6210    0.0762 H   0  0  0  0  0  0  0  0  0  0  0  0
   -0.7657    1.4156   -0.0306 H   0  0  0  0  0  0  0  0  0  0  0  0
   -0.7478    0.4086    1.4630 H   0  0  0  0  0  0  0  0  0  0  0  0
   -2.8349    1.0074   -1.7795 H   0  0  0  0  0  0  0  0  0  0  0  0
   -5.1996   -0.2081   -1.4345 H   0  0  0  0  0  0  0  0  0  0  0  0
   -5.0039   -1.5997    0.8301 H   0  0  0  0  0  0  0  0  0  0  0  0
  1  2  1  0
  2  3  2  0
  3  4  1  0
  4  5  2  0
  5  6  1  0
  6  7  2  0
  7  8  1  0
  8  9  1  0
  9 10  1  0
 10 11  2  0
 11 12  1  0
 12 13  2  0
 13 14  1  0
  7  2  1  0
 14 10  1  0
  3 15  1  0
  4 16  1  0
  5 17  1  0
  6 18  1  0
  8 19  1  0
  8 20  1  0
  9 21  1  0
  9 22  1  0
 11 23  1  0
 12 24  1  0
 13 25  1  0
M  RAD  1   1   3
M  END
$$$$
