
     RDKit          3D

 25 26  0  0  0  0  0  0  0  0999 V2000
    1.4706   -2.2396    1.8913 N   0  0  0  0  0  1  0  0  0  0  0  0
    1.7005   -1.0000    1.2249 C   0  0  0  0  0  0  0  0  0  0  0  0
    2.5029   -0.0322    1.8412 C   0  0  0  0  0  0  0  0  0  0  0  0
    2.7349    1.1939    1.2136 C   0  0  0  0  0  0  0  0  0  0  0  0
    2.1652    1.4600   -0.0329 C   0  0  0  0  0  0  0  0  0  0  0  0
    1.3644    0.4998   -0.6566 C   0  0  0  0  0  0  0  0  0  0  0  0
    1.1285   -0.7414   -0.0391 C   0  0  0  0  0  0  0  0  0  0  0  0
    0.2241   -1.7490   -0.7119 C   0  0  0  0  0  0  0  0  0  0  0  0
   -1.2069   -1.6866   -0.1635 C   0  0  0  0  0  0  0  0  0  0  0  0
   -1.8634   -0.3796   -0.4892 C   0  0  0  0  0  0  0  0  0  0  0  0
   -1.9648    0.7065    0.3570 C   0  0  0  0  0  0  0  0  0  0  0  0
   -2.6030    1.6853   -0.3734 C   0  0  0  0  0  0  0  0  0  0  0  0
   -2.8487    1.1372   -1.6166 C   0  0  0  0  0  0  0  0  0  0  0  0
   -2.3939   -0.0942   -1.6556 O   0  0  0  0  0  0  0  0  0  0  0  0
    2.9448   -0.2288    2.8101 H   0  0  0  0  0  0  0  0  0  0  0  0
    3.3541    1.9396    1.6953 H   0  0  0  0  0  0  0  0  0  0  0  0
    2.3411    2.4129   -0.5151 H   0  0  0  0  0  0  0  0  0  0  0  0
    0.9207    0.7273   -1.6181 H   0  0  0  0  0  0  0  0  0  0  0  0
    0.6266   -2.7730   -0.5562 H   0  0  0  0  0  0  0  0  0  0  0  0
    0.2083   -1.5840   -1.8121 H   0  0  0  0  0  0  0  0  0  0  0  0
   -1.2039   -1.8474    0.9365 H   0  0  0  0  0  0  0  0  0  0  0  0
   -1.8032   -2.5053   -0.6199 H   0  0  0  0  0  0  0  0  0  0  0  0
   -1.6062    0.7808    1.3753 H   0  0  0  0  0  0  0  0  0  0  0  0
   -2.8552    2.6834   -0.0415 H   0  0  0  0  0  0  0  0  0  0  0  0
   -3.3377    1.6343   -2.4435 H   0  0  0  0  0  0  0  0  0  0  0  0
  1  2  1  0
  2  3  2  0
  3  4  1  0
  4  5  2  0
  5  6  1  0
  6  7  2  0
  7  8  1  0
  8  9  1  0
  9 10  1  0
 10 11  2  0
 11 12  1  0
 12 13  2  0
 13 14  1  0
  7  2  1  0
 14 10  1  0
  3 15  1  0
  4 16  1  0
  5 17  1  0
  6 18  1  0
  8 19  1  0
  8 20  1  0
  9 21  1  0
  9 22  1  0
 11 23  1  0
 12 24  1  0
 13 25  1  0
M  RAD  1   1   3
M  END
$$$$
