
     RDKit          3D

 25 26  0  0  0  0  0  0  0  0999 V2000
   -1.3669    2.1554    1.2983 N   0  0  0  0  0  1  0  0  0  0  0  0
   -2.0662    1.0331    0.7645 C   0  0  0  0  0  0  0  0  0  0  0  0
   -3.4590    1.0955    0.6349 C   0  0  0  0  0  0  0  0  0  0  0  0
   -4.1656    0.0152    0.1009 C   0  0  0  0  0  0  0  0  0  0  0  0
   -3.4836   -1.1314   -0.3107 C   0  0  0  0  0  0  0  0  0  0  0  0
   -2.0936   -1.2031   -0.1850 C   0  0  0  0  0  0  0  0  0  0  0  0
   -1.3718   -0.1291    0.3646 C   0  0  0  0  0  0  0  0  0  0  0  0
    0.1317   -0.2164    0.4604 C   0  0  0  0  0  0  0  0  0  0  0  0
    0.7860    0.3670   -0.7942 C   0  0  0  0  0  0  0  0  0  0  0  0
    2.2763    0.2806   -0.6952 C   0  0  0  0  0  0  0  0  0  0  0  0
    3.0515   -0.7908   -1.0909 C   0  0  0  0  0  0  0  0  0  0  0  0
    4.3489   -0.4410   -0.7843 C   0  0  0  0  0  0  0  0  0  0  0  0
    4.2835    0.8165   -0.2180 C   0  0  0  0  0  0  0  0  0  0  0  0
    3.0339    1.2187   -0.1759 O   0  0  0  0  0  0  0  0  0  0  0  0
   -3.9948    1.9840    0.9446 H   0  0  0  0  0  0  0  0  0  0  0  0
   -5.2420    0.0691    0.0015 H   0  0  0  0  0  0  0  0  0  0  0  0
   -4.0321   -1.9646   -0.7308 H   0  0  0  0  0  0  0  0  0  0  0  0
   -1.5791   -2.0963   -0.5178 H   0  0  0  0  0  0  0  0  0  0  0  0
    0.4900    0.3269    1.3620 H   0  0  0  0  0  0  0  0  0  0  0  0
    0.4407   -1.2786    0.5807 H   0  0  0  0  0  0  0  0  0  0  0  0
    0.4941    1.4329   -0.9123 H   0  0  0  0  0  0  0  0  0  0  0  0
    0.4426   -0.1894   -1.6938 H   0  0  0  0  0  0  0  0  0  0  0  0
    2.7135   -1.7146   -1.5416 H   0  0  0  0  0  0  0  0  0  0  0  0
    5.2383   -1.0339   -0.9498 H   0  0  0  0  0  0  0  0  0  0  0  0
    5.1238    1.3943    0.1428 H   0  0  0  0  0  0  0  0  0  0  0  0
  1  2  1  0
  2  3  2  0
  3  4  1  0
  4  5  2  0
  5  6  1  0
  6  7  2  0
  7  8  1  0
  8  9  1  0
  9 10  1  0
 10 11  2  0
 11 12  1  0
 12 13  2  0
 13 14  1  0
  7  2  1  0
 14 10  1  0
  3 15  1  0
  4 16  1  0
  5 17  1  0
  6 18  1  0
  8 19  1  0
  8 20  1  0
  9 21  1  0
  9 22  1  0
 11 23  1  0
 12 24  1  0
 13 25  1  0
M  RAD  1   1   3
M  END
$$$$
