
     RDKit          3D

 25 26  0  0  0  0  0  0  0  0999 V2000
    2.1338   -2.4397   -0.5003 N   0  0  0  0  0  1  0  0  0  0  0  0
    1.9630   -1.0358   -0.6826 C   0  0  0  0  0  0  0  0  0  0  0  0
    2.4652   -0.4319   -1.8417 C   0  0  0  0  0  0  0  0  0  0  0  0
    2.3019    0.9399   -2.0484 C   0  0  0  0  0  0  0  0  0  0  0  0
    1.6345    1.7154   -1.0986 C   0  0  0  0  0  0  0  0  0  0  0  0
    1.1312    1.1221    0.0620 C   0  0  0  0  0  0  0  0  0  0  0  0
    1.2950   -0.2566    0.2861 C   0  0  0  0  0  0  0  0  0  0  0  0
    0.7051   -0.8853    1.5280 C   0  0  0  0  0  0  0  0  0  0  0  0
   -0.6597   -1.5272    1.2493 C   0  0  0  0  0  0  0  0  0  0  0  0
   -1.6844   -0.4990    0.8772 C   0  0  0  0  0  0  0  0  0  0  0  0
   -2.0716   -0.1723   -0.4070 C   0  0  0  0  0  0  0  0  0  0  0  0
   -2.9965    0.8396   -0.2675 C   0  0  0  0  0  0  0  0  0  0  0  0
   -3.1138    1.0676    1.0891 C   0  0  0  0  0  0  0  0  0  0  0  0
   -2.3171    0.2555    1.7453 O   0  0  0  0  0  0  0  0  0  0  0  0
    2.9802   -1.0269   -2.5856 H   0  0  0  0  0  0  0  0  0  0  0  0
    2.6900    1.4015   -2.9472 H   0  0  0  0  0  0  0  0  0  0  0  0
    1.5034    2.7771   -1.2632 H   0  0  0  0  0  0  0  0  0  0  0  0
    0.6058    1.7364    0.7828 H   0  0  0  0  0  0  0  0  0  0  0  0
    0.6017   -0.1276    2.3362 H   0  0  0  0  0  0  0  0  0  0  0  0
    1.3976   -1.6628    1.9167 H   0  0  0  0  0  0  0  0  0  0  0  0
   -0.5697   -2.2848    0.4407 H   0  0  0  0  0  0  0  0  0  0  0  0
   -1.0035   -2.0539    2.1650 H   0  0  0  0  0  0  0  0  0  0  0  0
   -1.7146   -0.6079   -1.3310 H   0  0  0  0  0  0  0  0  0  0  0  0
   -3.5201    1.3553   -1.0611 H   0  0  0  0  0  0  0  0  0  0  0  0
   -3.7573    1.8012    1.5557 H   0  0  0  0  0  0  0  0  0  0  0  0
  1  2  1  0
  2  3  2  0
  3  4  1  0
  4  5  2  0
  5  6  1  0
  6  7  2  0
  7  8  1  0
  8  9  1  0
  9 10  1  0
 10 11  2  0
 11 12  1  0
 12 13  2  0
 13 14  1  0
  7  2  1  0
 14 10  1  0
  3 15  1  0
  4 16  1  0
  5 17  1  0
  6 18  1  0
  8 19  1  0
  8 20  1  0
  9 21  1  0
  9 22  1  0
 11 23  1  0
 12 24  1  0
 13 25  1  0
M  RAD  1   1   3
M  END
$$$$
