
     RDKit          3D

 25 26  0  0  0  0  0  0  0  0999 V2000
    1.1173   -2.6518    1.5731 N   0  0  0  0  0  1  0  0  0  0  0  0
    1.3746   -1.2624    1.3817 C   0  0  0  0  0  0  0  0  0  0  0  0
    1.8289   -0.4970    2.4625 C   0  0  0  0  0  0  0  0  0  0  0  0
    2.0785    0.8681    2.3032 C   0  0  0  0  0  0  0  0  0  0  0  0
    1.8741    1.4760    1.0631 C   0  0  0  0  0  0  0  0  0  0  0  0
    1.4225    0.7202   -0.0218 C   0  0  0  0  0  0  0  0  0  0  0  0
    1.1742   -0.6564    0.1229 C   0  0  0  0  0  0  0  0  0  0  0  0
    0.6451   -1.4462   -1.0526 C   0  0  0  0  0  0  0  0  0  0  0  0
   -0.8799   -1.6003   -0.9965 C   0  0  0  0  0  0  0  0  0  0  0  0
   -1.5711   -0.2791   -1.1442 C   0  0  0  0  0  0  0  0  0  0  0  0
   -2.0556    0.4991   -0.1119 C   0  0  0  0  0  0  0  0  0  0  0  0
   -2.5681    1.6294   -0.7108 C   0  0  0  0  0  0  0  0  0  0  0  0
   -2.3632    1.4713   -2.0670 C   0  0  0  0  0  0  0  0  0  0  0  0
   -1.7645    0.3246   -2.2938 O   0  0  0  0  0  0  0  0  0  0  0  0
    1.9856   -0.9598    3.4288 H   0  0  0  0  0  0  0  0  0  0  0  0
    2.4274    1.4557    3.1425 H   0  0  0  0  0  0  0  0  0  0  0  0
    2.0621    2.5351    0.9430 H   0  0  0  0  0  0  0  0  0  0  0  0
    1.2580    1.2102   -0.9736 H   0  0  0  0  0  0  0  0  0  0  0  0
    0.9347   -0.9596   -2.0104 H   0  0  0  0  0  0  0  0  0  0  0  0
    1.1102   -2.4554   -1.0629 H   0  0  0  0  0  0  0  0  0  0  0  0
   -1.2053   -2.2644   -1.8254 H   0  0  0  0  0  0  0  0  0  0  0  0
   -1.1820   -2.0833   -0.0419 H   0  0  0  0  0  0  0  0  0  0  0  0
   -2.0268    0.2770    0.9467 H   0  0  0  0  0  0  0  0  0  0  0  0
   -3.0319    2.4728   -0.2173 H   0  0  0  0  0  0  0  0  0  0  0  0
   -2.6447    2.1764   -2.8374 H   0  0  0  0  0  0  0  0  0  0  0  0
  1  2  1  0
  2  3  2  0
  3  4  1  0
  4  5  2  0
  5  6  1  0
  6  7  2  0
  7  8  1  0
  8  9  1  0
  9 10  1  0
 10 11  2  0
 11 12  1  0
 12 13  2  0
 13 14  1  0
  7  2  1  0
 14 10  1  0
  3 15  1  0
  4 16  1  0
  5 17  1  0
  6 18  1  0
  8 19  1  0
  8 20  1  0
  9 21  1  0
  9 22  1  0
 11 23  1  0
 12 24  1  0
 13 25  1  0
M  RAD  1   1   3
M  END
$$$$
