
     RDKit          3D

 31 32  0  0  0  0  0  0  0  0999 V2000
   -1.6125    1.5904    0.6404 C   0  0  0  0  0  0  0  0  0  0  0  0
   -1.8883    0.1810    0.1897 C   0  0  0  0  0  0  0  0  0  0  0  0
   -2.9326   -0.5272    0.8114 C   0  0  0  0  0  0  0  0  0  0  0  0
   -3.2539   -1.8229    0.4077 C   0  0  0  0  0  0  0  0  0  0  0  0
   -2.5421   -2.4286   -0.6244 C   0  0  0  0  0  0  0  0  0  0  0  0
   -1.4906   -1.7502   -1.2413 C   0  0  0  0  0  0  0  0  0  0  0  0
   -1.1188   -0.4575   -0.8221 C   0  0  0  0  0  0  0  0  0  0  0  0
    0.0356    0.2253   -1.5349 C   0  0  0  0  0  0  0  0  0  0  0  0
    1.1342    0.7152   -0.6067 C   0  0  0  0  0  0  0  0  0  0  0  0
    1.4030    2.0991   -0.5793 C   0  0  0  0  0  0  0  0  0  0  0  0
    2.3816    2.6242    0.2634 C   0  0  0  0  0  0  0  0  0  0  0  0
    3.1197    1.7789    1.0856 C   0  0  0  0  0  0  0  0  0  0  0  0
    2.8954    0.4033    1.0546 C   0  0  0  0  0  0  0  0  0  0  0  0
    1.9239   -0.1511    0.2029 C   0  0  0  0  0  0  0  0  0  0  0  0
    1.7482   -1.9152    0.1929 S   0  0  0  0  0  0  0  0  0  0  0  0
    3.1409   -2.6569    0.8990 N   0  0  0  0  0  1  0  0  0  0  0  0
    0.5386   -2.3093    0.9918 O   0  0  0  0  0  0  0  0  0  0  0  0
    1.6209   -2.4244   -1.2143 O   0  0  0  0  0  0  0  0  0  0  0  0
   -2.4724    2.0098    1.2050 H   0  0  0  0  0  0  0  0  0  0  0  0
   -0.7245    1.6042    1.3056 H   0  0  0  0  0  0  0  0  0  0  0  0
   -1.4460    2.2519   -0.2340 H   0  0  0  0  0  0  0  0  0  0  0  0
   -3.5110   -0.0707    1.6053 H   0  0  0  0  0  0  0  0  0  0  0  0
   -4.0652   -2.3539    0.8887 H   0  0  0  0  0  0  0  0  0  0  0  0
   -2.8039   -3.4280   -0.9471 H   0  0  0  0  0  0  0  0  0  0  0  0
   -0.9577   -2.2445   -2.0437 H   0  0  0  0  0  0  0  0  0  0  0  0
    0.4956   -0.4430   -2.2921 H   0  0  0  0  0  0  0  0  0  0  0  0
   -0.3897    1.0660   -2.1245 H   0  0  0  0  0  0  0  0  0  0  0  0
    0.8422    2.7828   -1.2045 H   0  0  0  0  0  0  0  0  0  0  0  0
    2.5647    3.6908    0.2812 H   0  0  0  0  0  0  0  0  0  0  0  0
    3.8746    2.1894    1.7439 H   0  0  0  0  0  0  0  0  0  0  0  0
    3.4902   -0.2289    1.6999 H   0  0  0  0  0  0  0  0  0  0  0  0
  1  2  1  0
  2  3  2  0
  3  4  1  0
  4  5  2  0
  5  6  1  0
  6  7  2  0
  7  8  1  0
  8  9  1  0
  9 10  2  0
 10 11  1  0
 11 12  2  0
 12 13  1  0
 13 14  2  0
 14 15  1  0
 15 16  1  0
 15 17  2  0
 15 18  2  0
  7  2  1  0
 14  9  1  0
  1 19  1  0
  1 20  1  0
  1 21  1  0
  3 22  1  0
  4 23  1  0
  5 24  1  0
  6 25  1  0
  8 26  1  0
  8 27  1  0
 10 28  1  0
 11 29  1  0
 12 30  1  0
 13 31  1  0
M  RAD  1  16   3
M  END
$$$$
