
     RDKit          3D

 31 32  0  0  0  0  0  0  0  0999 V2000
    1.1914   -0.3139   -1.9813 C   0  0  0  0  0  0  0  0  0  0  0  0
    1.9118    0.0525   -0.7103 C   0  0  0  0  0  0  0  0  0  0  0  0
    3.2512   -0.3435   -0.5459 C   0  0  0  0  0  0  0  0  0  0  0  0
    3.9537   -0.0105    0.6132 C   0  0  0  0  0  0  0  0  0  0  0  0
    3.3316    0.7239    1.6211 C   0  0  0  0  0  0  0  0  0  0  0  0
    2.0045    1.1298    1.4743 C   0  0  0  0  0  0  0  0  0  0  0  0
    1.2787    0.8050    0.3132 C   0  0  0  0  0  0  0  0  0  0  0  0
   -0.1667    1.2513    0.2054 C   0  0  0  0  0  0  0  0  0  0  0  0
   -1.1499    0.1115    0.4178 C   0  0  0  0  0  0  0  0  0  0  0  0
   -0.9235   -0.7972    1.4728 C   0  0  0  0  0  0  0  0  0  0  0  0
   -1.8005   -1.8554    1.7087 C   0  0  0  0  0  0  0  0  0  0  0  0
   -2.9311   -2.0151    0.9131 C   0  0  0  0  0  0  0  0  0  0  0  0
   -3.2005   -1.1053   -0.1085 C   0  0  0  0  0  0  0  0  0  0  0  0
   -2.3346   -0.0267   -0.3589 C   0  0  0  0  0  0  0  0  0  0  0  0
   -2.7846    1.1305   -1.6245 S   0  0  0  0  0  0  0  0  0  0  0  0
   -2.7701    2.7350   -0.9831 N   0  0  0  0  0  1  0  0  0  0  0  0
   -4.1690    0.8377   -2.1316 O   0  0  0  0  0  0  0  0  0  0  0  0
   -1.8199    1.0316   -2.7719 O   0  0  0  0  0  0  0  0  0  0  0  0
    0.2671   -0.8810   -1.7486 H   0  0  0  0  0  0  0  0  0  0  0  0
    0.9332    0.6067   -2.5443 H   0  0  0  0  0  0  0  0  0  0  0  0
    1.8195   -0.9516   -2.6391 H   0  0  0  0  0  0  0  0  0  0  0  0
    3.7563   -0.9125   -1.3167 H   0  0  0  0  0  0  0  0  0  0  0  0
    4.9836   -0.3226    0.7295 H   0  0  0  0  0  0  0  0  0  0  0  0
    3.8786    0.9790    2.5196 H   0  0  0  0  0  0  0  0  0  0  0  0
    1.5396    1.6945    2.2729 H   0  0  0  0  0  0  0  0  0  0  0  0
   -0.2899    1.7313   -0.7828 H   0  0  0  0  0  0  0  0  0  0  0  0
   -0.3893    2.0408    0.9553 H   0  0  0  0  0  0  0  0  0  0  0  0
   -0.0610   -0.6932    2.1179 H   0  0  0  0  0  0  0  0  0  0  0  0
   -1.6035   -2.5521    2.5134 H   0  0  0  0  0  0  0  0  0  0  0  0
   -3.6095   -2.8382    1.0974 H   0  0  0  0  0  0  0  0  0  0  0  0
   -4.0973   -1.2425   -0.6980 H   0  0  0  0  0  0  0  0  0  0  0  0
  1  2  1  0
  2  3  2  0
  3  4  1  0
  4  5  2  0
  5  6  1  0
  6  7  2  0
  7  8  1  0
  8  9  1  0
  9 10  2  0
 10 11  1  0
 11 12  2  0
 12 13  1  0
 13 14  2  0
 14 15  1  0
 15 16  1  0
 15 17  2  0
 15 18  2  0
  7  2  1  0
 14  9  1  0
  1 19  1  0
  1 20  1  0
  1 21  1  0
  3 22  1  0
  4 23  1  0
  5 24  1  0
  6 25  1  0
  8 26  1  0
  8 27  1  0
 10 28  1  0
 11 29  1  0
 12 30  1  0
 13 31  1  0
M  RAD  1  16   3
M  END
$$$$
