
     RDKit          3D

 31 32  0  0  0  0  0  0  0  0999 V2000
    1.1800   -2.0180   -0.2493 C   0  0  0  0  0  0  0  0  0  0  0  0
    1.7772   -0.6375   -0.3065 C   0  0  0  0  0  0  0  0  0  0  0  0
    2.8610   -0.4137   -1.1746 C   0  0  0  0  0  0  0  0  0  0  0  0
    3.4766    0.8362   -1.2384 C   0  0  0  0  0  0  0  0  0  0  0  0
    3.0238    1.8785   -0.4338 C   0  0  0  0  0  0  0  0  0  0  0  0
    1.9382    1.6823    0.4202 C   0  0  0  0  0  0  0  0  0  0  0  0
    1.2715    0.4421    0.4699 C   0  0  0  0  0  0  0  0  0  0  0  0
    0.0986    0.2953    1.4232 C   0  0  0  0  0  0  0  0  0  0  0  0
   -1.1751   -0.2173    0.7722 C   0  0  0  0  0  0  0  0  0  0  0  0
   -1.7004   -1.4414    1.2352 C   0  0  0  0  0  0  0  0  0  0  0  0
   -2.8569   -1.9843    0.6777 C   0  0  0  0  0  0  0  0  0  0  0  0
   -3.5208   -1.3110   -0.3424 C   0  0  0  0  0  0  0  0  0  0  0  0
   -3.0405   -0.0840   -0.7973 C   0  0  0  0  0  0  0  0  0  0  0  0
   -1.8819    0.4897   -0.2434 C   0  0  0  0  0  0  0  0  0  0  0  0
   -1.3798    2.0782   -0.8528 S   0  0  0  0  0  0  0  0  0  0  0  0
   -1.0309    3.1539    0.4527 N   0  0  0  0  0  1  0  0  0  0  0  0
   -2.4896    2.6874   -1.6632 O   0  0  0  0  0  0  0  0  0  0  0  0
   -0.1735    1.9285   -1.7351 O   0  0  0  0  0  0  0  0  0  0  0  0
    0.2329   -2.0410   -0.8268 H   0  0  0  0  0  0  0  0  0  0  0  0
    1.8673   -2.7743   -0.6849 H   0  0  0  0  0  0  0  0  0  0  0  0
    0.9948   -2.3168    0.8025 H   0  0  0  0  0  0  0  0  0  0  0  0
    3.2418   -1.2139   -1.7975 H   0  0  0  0  0  0  0  0  0  0  0  0
    4.3152    0.9928   -1.9045 H   0  0  0  0  0  0  0  0  0  0  0  0
    3.5139    2.8428   -0.4725 H   0  0  0  0  0  0  0  0  0  0  0  0
    1.6111    2.5096    1.0372 H   0  0  0  0  0  0  0  0  0  0  0  0
    0.4237   -0.3804    2.2436 H   0  0  0  0  0  0  0  0  0  0  0  0
   -0.1342    1.2548    1.9288 H   0  0  0  0  0  0  0  0  0  0  0  0
   -1.2056   -1.9905    2.0267 H   0  0  0  0  0  0  0  0  0  0  0  0
   -3.2376   -2.9317    1.0370 H   0  0  0  0  0  0  0  0  0  0  0  0
   -4.4162   -1.7365   -0.7771 H   0  0  0  0  0  0  0  0  0  0  0  0
   -3.5845    0.4202   -1.5850 H   0  0  0  0  0  0  0  0  0  0  0  0
  1  2  1  0
  2  3  2  0
  3  4  1  0
  4  5  2  0
  5  6  1  0
  6  7  2  0
  7  8  1  0
  8  9  1  0
  9 10  2  0
 10 11  1  0
 11 12  2  0
 12 13  1  0
 13 14  2  0
 14 15  1  0
 15 16  1  0
 15 17  2  0
 15 18  2  0
  7  2  1  0
 14  9  1  0
  1 19  1  0
  1 20  1  0
  1 21  1  0
  3 22  1  0
  4 23  1  0
  5 24  1  0
  6 25  1  0
  8 26  1  0
  8 27  1  0
 10 28  1  0
 11 29  1  0
 12 30  1  0
 13 31  1  0
M  RAD  1  16   3
M  END
$$$$
