
     RDKit          3D

 31 32  0  0  0  0  0  0  0  0999 V2000
    1.5313   -1.7194    0.3776 C   0  0  0  0  0  0  0  0  0  0  0  0
    2.0117   -0.3134    0.1306 C   0  0  0  0  0  0  0  0  0  0  0  0
    3.2442    0.0924    0.6729 C   0  0  0  0  0  0  0  0  0  0  0  0
    3.7266    1.3836    0.4536 C   0  0  0  0  0  0  0  0  0  0  0  0
    2.9888    2.2852   -0.3113 C   0  0  0  0  0  0  0  0  0  0  0  0
    1.7657    1.8995   -0.8615 C   0  0  0  0  0  0  0  0  0  0  0  0
    1.2618    0.6022   -0.6531 C   0  0  0  0  0  0  0  0  0  0  0  0
   -0.0805    0.2334   -1.2549 C   0  0  0  0  0  0  0  0  0  0  0  0
   -1.1939    0.1867   -0.2210 C   0  0  0  0  0  0  0  0  0  0  0  0
   -1.2769    1.2167    0.7394 C   0  0  0  0  0  0  0  0  0  0  0  0
   -2.2837    1.2183    1.7043 C   0  0  0  0  0  0  0  0  0  0  0  0
   -3.2397    0.2071    1.7168 C   0  0  0  0  0  0  0  0  0  0  0  0
   -3.2053   -0.7986    0.7518 C   0  0  0  0  0  0  0  0  0  0  0  0
   -2.2044   -0.8156   -0.2351 C   0  0  0  0  0  0  0  0  0  0  0  0
   -2.2721   -2.0831   -1.4730 S   0  0  0  0  0  0  0  0  0  0  0  0
   -2.2296   -1.3685   -3.0458 N   0  0  0  0  0  1  0  0  0  0  0  0
   -3.5470   -2.8692   -1.3464 O   0  0  0  0  0  0  0  0  0  0  0  0
   -1.1094   -3.0199   -1.3073 O   0  0  0  0  0  0  0  0  0  0  0  0
    0.5277   -1.7045    0.8494 H   0  0  0  0  0  0  0  0  0  0  0  0
    1.4847   -2.2734   -0.5826 H   0  0  0  0  0  0  0  0  0  0  0  0
    2.2135   -2.2719    1.0580 H   0  0  0  0  0  0  0  0  0  0  0  0
    3.8364   -0.5915    1.2683 H   0  0  0  0  0  0  0  0  0  0  0  0
    4.6756    1.6854    0.8778 H   0  0  0  0  0  0  0  0  0  0  0  0
    3.3648    3.2864   -0.4780 H   0  0  0  0  0  0  0  0  0  0  0  0
    1.2067    2.6185   -1.4476 H   0  0  0  0  0  0  0  0  0  0  0  0
   -0.3714    0.9645   -2.0398 H   0  0  0  0  0  0  0  0  0  0  0  0
    0.0471   -0.7331   -1.7761 H   0  0  0  0  0  0  0  0  0  0  0  0
   -0.5571    2.0245    0.7488 H   0  0  0  0  0  0  0  0  0  0  0  0
   -2.3236    2.0085    2.4430 H   0  0  0  0  0  0  0  0  0  0  0  0
   -4.0193    0.2099    2.4678 H   0  0  0  0  0  0  0  0  0  0  0  0
   -3.9730   -1.5607    0.7734 H   0  0  0  0  0  0  0  0  0  0  0  0
  1  2  1  0
  2  3  2  0
  3  4  1  0
  4  5  2  0
  5  6  1  0
  6  7  2  0
  7  8  1  0
  8  9  1  0
  9 10  2  0
 10 11  1  0
 11 12  2  0
 12 13  1  0
 13 14  2  0
 14 15  1  0
 15 16  1  0
 15 17  2  0
 15 18  2  0
  7  2  1  0
 14  9  1  0
  1 19  1  0
  1 20  1  0
  1 21  1  0
  3 22  1  0
  4 23  1  0
  5 24  1  0
  6 25  1  0
  8 26  1  0
  8 27  1  0
 10 28  1  0
 11 29  1  0
 12 30  1  0
 13 31  1  0
M  RAD  1  16   3
M  END
$$$$
