
     RDKit          3D

 31 32  0  0  0  0  0  0  0  0999 V2000
    1.2667    0.8854    1.7618 C   0  0  0  0  0  0  0  0  0  0  0  0
    1.8069    0.1301    0.5772 C   0  0  0  0  0  0  0  0  0  0  0  0
    2.9000   -0.7324    0.7766 C   0  0  0  0  0  0  0  0  0  0  0  0
    3.4641   -1.4267   -0.2934 C   0  0  0  0  0  0  0  0  0  0  0  0
    2.9500   -1.2667   -1.5775 C   0  0  0  0  0  0  0  0  0  0  0  0
    1.8544   -0.4305   -1.7933 C   0  0  0  0  0  0  0  0  0  0  0  0
    1.2390    0.2469   -0.7219 C   0  0  0  0  0  0  0  0  0  0  0  0
    0.0518    1.1435   -1.0267 C   0  0  0  0  0  0  0  0  0  0  0  0
   -1.1842    0.8478   -0.1937 C   0  0  0  0  0  0  0  0  0  0  0  0
   -1.6684    1.8720    0.6461 C   0  0  0  0  0  0  0  0  0  0  0  0
   -2.7882    1.6720    1.4517 C   0  0  0  0  0  0  0  0  0  0  0  0
   -3.4562    0.4523    1.4257 C   0  0  0  0  0  0  0  0  0  0  0  0
   -3.0173   -0.5663    0.5814 C   0  0  0  0  0  0  0  0  0  0  0  0
   -1.8965   -0.3852   -0.2489 C   0  0  0  0  0  0  0  0  0  0  0  0
   -1.4474   -1.7214   -1.3258 S   0  0  0  0  0  0  0  0  0  0  0  0
   -1.1735   -1.1492   -2.9323 N   0  0  0  0  0  1  0  0  0  0  0  0
   -0.2161   -2.4055   -0.8044 O   0  0  0  0  0  0  0  0  0  0  0  0
   -2.5629   -2.7274   -1.3826 O   0  0  0  0  0  0  0  0  0  0  0  0
    1.0701    1.9426    1.4904 H   0  0  0  0  0  0  0  0  0  0  0  0
    0.3348    0.4023    2.1213 H   0  0  0  0  0  0  0  0  0  0  0  0
    1.9947    0.8961    2.6008 H   0  0  0  0  0  0  0  0  0  0  0  0
    3.3279   -0.8598    1.7634 H   0  0  0  0  0  0  0  0  0  0  0  0
    4.3105   -2.0809   -0.1278 H   0  0  0  0  0  0  0  0  0  0  0  0
    3.4002   -1.7934   -2.4090 H   0  0  0  0  0  0  0  0  0  0  0  0
    1.4790   -0.3221   -2.8029 H   0  0  0  0  0  0  0  0  0  0  0  0
   -0.2323    1.0884   -2.0975 H   0  0  0  0  0  0  0  0  0  0  0  0
    0.3860    2.1933   -0.8806 H   0  0  0  0  0  0  0  0  0  0  0  0
   -1.1692    2.8321    0.6901 H   0  0  0  0  0  0  0  0  0  0  0  0
   -3.1372    2.4655    2.1000 H   0  0  0  0  0  0  0  0  0  0  0  0
   -4.3229    0.2974    2.0554 H   0  0  0  0  0  0  0  0  0  0  0  0
   -3.5637   -1.5002    0.5763 H   0  0  0  0  0  0  0  0  0  0  0  0
  1  2  1  0
  2  3  2  0
  3  4  1  0
  4  5  2  0
  5  6  1  0
  6  7  2  0
  7  8  1  0
  8  9  1  0
  9 10  2  0
 10 11  1  0
 11 12  2  0
 12 13  1  0
 13 14  2  0
 14 15  1  0
 15 16  1  0
 15 17  2  0
 15 18  2  0
  7  2  1  0
 14  9  1  0
  1 19  1  0
  1 20  1  0
  1 21  1  0
  3 22  1  0
  4 23  1  0
  5 24  1  0
  6 25  1  0
  8 26  1  0
  8 27  1  0
 10 28  1  0
 11 29  1  0
 12 30  1  0
 13 31  1  0
M  RAD  1  16   3
M  END
$$$$
