
     RDKit          3D

 31 32  0  0  0  0  0  0  0  0999 V2000
    1.7703   -0.5475    1.4191 C   0  0  0  0  0  0  0  0  0  0  0  0
    1.8729    0.2309    0.1349 C   0  0  0  0  0  0  0  0  0  0  0  0
    2.7949    1.2911    0.0681 C   0  0  0  0  0  0  0  0  0  0  0  0
    2.9584    2.0201   -1.1095 C   0  0  0  0  0  0  0  0  0  0  0  0
    2.2090    1.6991   -2.2382 C   0  0  0  0  0  0  0  0  0  0  0  0
    1.2753    0.6638   -2.1869 C   0  0  0  0  0  0  0  0  0  0  0  0
    1.0602   -0.0585   -0.9964 C   0  0  0  0  0  0  0  0  0  0  0  0
    0.0328   -1.1771   -1.0105 C   0  0  0  0  0  0  0  0  0  0  0  0
   -1.0164   -1.0722    0.0834 C   0  0  0  0  0  0  0  0  0  0  0  0
   -1.0929   -2.1217    1.0221 C   0  0  0  0  0  0  0  0  0  0  0  0
   -2.0167   -2.0867    2.0657 C   0  0  0  0  0  0  0  0  0  0  0  0
   -2.8913   -1.0118    2.1863 C   0  0  0  0  0  0  0  0  0  0  0  0
   -2.8579    0.0235    1.2534 C   0  0  0  0  0  0  0  0  0  0  0  0
   -1.9442    0.0044    0.1848 C   0  0  0  0  0  0  0  0  0  0  0  0
   -2.0170    1.3415   -0.9774 S   0  0  0  0  0  0  0  0  0  0  0  0
   -0.7779    2.4916   -0.6237 N   0  0  0  0  0  1  0  0  0  0  0  0
   -1.8631    0.8345   -2.3826 O   0  0  0  0  0  0  0  0  0  0  0  0
   -3.3501    2.0287   -0.8766 O   0  0  0  0  0  0  0  0  0  0  0  0
    2.6569   -0.3780    2.0667 H   0  0  0  0  0  0  0  0  0  0  0  0
    1.7255   -1.6357    1.2101 H   0  0  0  0  0  0  0  0  0  0  0  0
    0.8683   -0.2275    1.9804 H   0  0  0  0  0  0  0  0  0  0  0  0
    3.4014    1.5483    0.9280 H   0  0  0  0  0  0  0  0  0  0  0  0
    3.6776    2.8280   -1.1502 H   0  0  0  0  0  0  0  0  0  0  0  0
    2.3499    2.2550   -3.1562 H   0  0  0  0  0  0  0  0  0  0  0  0
    0.7114    0.4328   -3.0818 H   0  0  0  0  0  0  0  0  0  0  0  0
   -0.4913   -1.2334   -1.9871 H   0  0  0  0  0  0  0  0  0  0  0  0
    0.5887   -2.1366   -0.9356 H   0  0  0  0  0  0  0  0  0  0  0  0
   -0.4233   -2.9704    0.9571 H   0  0  0  0  0  0  0  0  0  0  0  0
   -2.0514   -2.8950    2.7848 H   0  0  0  0  0  0  0  0  0  0  0  0
   -3.6040   -0.9838    3.0005 H   0  0  0  0  0  0  0  0  0  0  0  0
   -3.5562    0.8424    1.3671 H   0  0  0  0  0  0  0  0  0  0  0  0
  1  2  1  0
  2  3  2  0
  3  4  1  0
  4  5  2  0
  5  6  1  0
  6  7  2  0
  7  8  1  0
  8  9  1  0
  9 10  2  0
 10 11  1  0
 11 12  2  0
 12 13  1  0
 13 14  2  0
 14 15  1  0
 15 16  1  0
 15 17  2  0
 15 18  2  0
  7  2  1  0
 14  9  1  0
  1 19  1  0
  1 20  1  0
  1 21  1  0
  3 22  1  0
  4 23  1  0
  5 24  1  0
  6 25  1  0
  8 26  1  0
  8 27  1  0
 10 28  1  0
 11 29  1  0
 12 30  1  0
 13 31  1  0
M  RAD  1  16   3
M  END
$$$$
