
     RDKit          3D

 31 32  0  0  0  0  0  0  0  0999 V2000
   -1.0466    2.0656    0.2928 C   0  0  0  0  0  0  0  0  0  0  0  0
   -1.7369    0.7468    0.0689 C   0  0  0  0  0  0  0  0  0  0  0  0
   -2.9453    0.5019    0.7458 C   0  0  0  0  0  0  0  0  0  0  0  0
   -3.6463   -0.6870    0.5450 C   0  0  0  0  0  0  0  0  0  0  0  0
   -3.1550   -1.6457   -0.3372 C   0  0  0  0  0  0  0  0  0  0  0  0
   -1.9484   -1.4304   -1.0036 C   0  0  0  0  0  0  0  0  0  0  0  0
   -1.1997   -0.2572   -0.7841 C   0  0  0  0  0  0  0  0  0  0  0  0
    0.1026   -0.0830   -1.5460 C   0  0  0  0  0  0  0  0  0  0  0  0
    1.3023    0.2246   -0.6658 C   0  0  0  0  0  0  0  0  0  0  0  0
    1.9699    1.4496   -0.8712 C   0  0  0  0  0  0  0  0  0  0  0  0
    3.0665    1.8104   -0.0895 C   0  0  0  0  0  0  0  0  0  0  0  0
    3.5274    0.9515    0.9030 C   0  0  0  0  0  0  0  0  0  0  0  0
    2.9050   -0.2792    1.1055 C   0  0  0  0  0  0  0  0  0  0  0  0
    1.8056   -0.6711    0.3213 C   0  0  0  0  0  0  0  0  0  0  0  0
    1.1178   -2.2774    0.6218 S   0  0  0  0  0  0  0  0  0  0  0  0
   -0.2979   -2.1333    1.6006 N   0  0  0  0  0  1  0  0  0  0  0  0
    2.1189   -3.1290    1.3514 O   0  0  0  0  0  0  0  0  0  0  0  0
    0.7823   -2.9633   -0.6713 O   0  0  0  0  0  0  0  0  0  0  0  0
   -0.1917    1.9282    0.9866 H   0  0  0  0  0  0  0  0  0  0  0  0
   -0.6944    2.4871   -0.6706 H   0  0  0  0  0  0  0  0  0  0  0  0
   -1.7366    2.8123    0.7403 H   0  0  0  0  0  0  0  0  0  0  0  0
   -3.3560    1.2401    1.4238 H   0  0  0  0  0  0  0  0  0  0  0  0
   -4.5795   -0.8594    1.0655 H   0  0  0  0  0  0  0  0  0  0  0  0
   -3.7094   -2.5601   -0.5046 H   0  0  0  0  0  0  0  0  0  0  0  0
   -1.5943   -2.1909   -1.6880 H   0  0  0  0  0  0  0  0  0  0  0  0
    0.3406   -0.9817   -2.1521 H   0  0  0  0  0  0  0  0  0  0  0  0
   -0.0578    0.7239   -2.2934 H   0  0  0  0  0  0  0  0  0  0  0  0
    1.6329    2.1410   -1.6336 H   0  0  0  0  0  0  0  0  0  0  0  0
    3.5578    2.7610   -0.2525 H   0  0  0  0  0  0  0  0  0  0  0  0
    4.3754    1.2359    1.5126 H   0  0  0  0  0  0  0  0  0  0  0  0
    3.2908   -0.9308    1.8787 H   0  0  0  0  0  0  0  0  0  0  0  0
  1  2  1  0
  2  3  2  0
  3  4  1  0
  4  5  2  0
  5  6  1  0
  6  7  2  0
  7  8  1  0
  8  9  1  0
  9 10  2  0
 10 11  1  0
 11 12  2  0
 12 13  1  0
 13 14  2  0
 14 15  1  0
 15 16  1  0
 15 17  2  0
 15 18  2  0
  7  2  1  0
 14  9  1  0
  1 19  1  0
  1 20  1  0
  1 21  1  0
  3 22  1  0
  4 23  1  0
  5 24  1  0
  6 25  1  0
  8 26  1  0
  8 27  1  0
 10 28  1  0
 11 29  1  0
 12 30  1  0
 13 31  1  0
M  RAD  1  16   3
M  END
$$$$
