
     RDKit          3D

 31 32  0  0  0  0  0  0  0  0999 V2000
   -1.2801   -1.4252    1.3320 C   0  0  0  0  0  0  0  0  0  0  0  0
   -1.9476   -0.3873    0.4683 C   0  0  0  0  0  0  0  0  0  0  0  0
   -3.1996    0.1219    0.8567 C   0  0  0  0  0  0  0  0  0  0  0  0
   -3.8531    1.0750    0.0742 C   0  0  0  0  0  0  0  0  0  0  0  0
   -3.2690    1.5300   -1.1066 C   0  0  0  0  0  0  0  0  0  0  0  0
   -2.0292    1.0331   -1.5109 C   0  0  0  0  0  0  0  0  0  0  0  0
   -1.3540    0.0713   -0.7368 C   0  0  0  0  0  0  0  0  0  0  0  0
   -0.0004   -0.4262   -1.2058 C   0  0  0  0  0  0  0  0  0  0  0  0
    1.1501    0.1580   -0.4020 C   0  0  0  0  0  0  0  0  0  0  0  0
    1.1374    1.5346   -0.0940 C   0  0  0  0  0  0  0  0  0  0  0  0
    2.1731    2.1157    0.6370 C   0  0  0  0  0  0  0  0  0  0  0  0
    3.2515    1.3418    1.0552 C   0  0  0  0  0  0  0  0  0  0  0  0
    3.3090   -0.0119    0.7263 C   0  0  0  0  0  0  0  0  0  0  0  0
    2.2802   -0.6167   -0.0166 C   0  0  0  0  0  0  0  0  0  0  0  0
    2.4618   -2.3235   -0.4609 S   0  0  0  0  0  0  0  0  0  0  0  0
    2.2647   -2.5086   -2.1676 N   0  0  0  0  0  1  0  0  0  0  0  0
    1.4374   -3.1503    0.2631 O   0  0  0  0  0  0  0  0  0  0  0  0
    3.8316   -2.8173   -0.0879 O   0  0  0  0  0  0  0  0  0  0  0  0
   -1.8575   -1.6181    2.2609 H   0  0  0  0  0  0  0  0  0  0  0  0
   -0.2688   -1.0822    1.6315 H   0  0  0  0  0  0  0  0  0  0  0  0
   -1.2005   -2.3813    0.7747 H   0  0  0  0  0  0  0  0  0  0  0  0
   -3.6743   -0.2185    1.7687 H   0  0  0  0  0  0  0  0  0  0  0  0
   -4.8155    1.4613    0.3843 H   0  0  0  0  0  0  0  0  0  0  0  0
   -3.7776    2.2706   -1.7103 H   0  0  0  0  0  0  0  0  0  0  0  0
   -1.5915    1.4054   -2.4290 H   0  0  0  0  0  0  0  0  0  0  0  0
   -0.0226   -1.5306   -1.1623 H   0  0  0  0  0  0  0  0  0  0  0  0
    0.1622   -0.1686   -2.2747 H   0  0  0  0  0  0  0  0  0  0  0  0
    0.3202    2.1667   -0.4157 H   0  0  0  0  0  0  0  0  0  0  0  0
    2.1400    3.1706    0.8773 H   0  0  0  0  0  0  0  0  0  0  0  0
    4.0534    1.7949    1.6237 H   0  0  0  0  0  0  0  0  0  0  0  0
    4.1690   -0.5846    1.0472 H   0  0  0  0  0  0  0  0  0  0  0  0
  1  2  1  0
  2  3  2  0
  3  4  1  0
  4  5  2  0
  5  6  1  0
  6  7  2  0
  7  8  1  0
  8  9  1  0
  9 10  2  0
 10 11  1  0
 11 12  2  0
 12 13  1  0
 13 14  2  0
 14 15  1  0
 15 16  1  0
 15 17  2  0
 15 18  2  0
  7  2  1  0
 14  9  1  0
  1 19  1  0
  1 20  1  0
  1 21  1  0
  3 22  1  0
  4 23  1  0
  5 24  1  0
  6 25  1  0
  8 26  1  0
  8 27  1  0
 10 28  1  0
 11 29  1  0
 12 30  1  0
 13 31  1  0
M  RAD  1  16   3
M  END
$$$$
