
     RDKit          3D

 31 32  0  0  0  0  0  0  0  0999 V2000
   -1.4349   -1.8099    0.3301 C   0  0  0  0  0  0  0  0  0  0  0  0
   -1.9763   -0.4046    0.3047 C   0  0  0  0  0  0  0  0  0  0  0  0
   -3.1520   -0.1125    1.0189 C   0  0  0  0  0  0  0  0  0  0  0  0
   -3.6893    1.1755    1.0074 C   0  0  0  0  0  0  0  0  0  0  0  0
   -3.0639    2.1875    0.2815 C   0  0  0  0  0  0  0  0  0  0  0  0
   -1.8989    1.9160   -0.4372 C   0  0  0  0  0  0  0  0  0  0  0  0
   -1.3412    0.6240   -0.4393 C   0  0  0  0  0  0  0  0  0  0  0  0
   -0.0639    0.3798   -1.2196 C   0  0  0  0  0  0  0  0  0  0  0  0
    1.1571    0.2574   -0.3225 C   0  0  0  0  0  0  0  0  0  0  0  0
    1.3179    1.1720    0.7396 C   0  0  0  0  0  0  0  0  0  0  0  0
    2.4242    1.1014    1.5857 C   0  0  0  0  0  0  0  0  0  0  0  0
    3.4020    0.1335    1.3764 C   0  0  0  0  0  0  0  0  0  0  0  0
    3.2883   -0.7545    0.3075 C   0  0  0  0  0  0  0  0  0  0  0  0
    2.1859   -0.6963   -0.5627 C   0  0  0  0  0  0  0  0  0  0  0  0
    2.1505   -1.8087   -1.9429 S   0  0  0  0  0  0  0  0  0  0  0  0
    1.9169   -0.9194   -3.4060 N   0  0  0  0  0  1  0  0  0  0  0  0
    3.4519   -2.5539   -2.0466 O   0  0  0  0  0  0  0  0  0  0  0  0
    1.0381   -2.8031   -1.7677 O   0  0  0  0  0  0  0  0  0  0  0  0
   -2.0236   -2.4636    1.0084 H   0  0  0  0  0  0  0  0  0  0  0  0
   -0.3863   -1.8106    0.6913 H   0  0  0  0  0  0  0  0  0  0  0  0
   -1.4795   -2.2470   -0.6887 H   0  0  0  0  0  0  0  0  0  0  0  0
   -3.6571   -0.8833    1.5880 H   0  0  0  0  0  0  0  0  0  0  0  0
   -4.5936    1.3890    1.5626 H   0  0  0  0  0  0  0  0  0  0  0  0
   -3.4821    3.1859    0.2760 H   0  0  0  0  0  0  0  0  0  0  0  0
   -1.4267    2.7192   -0.9894 H   0  0  0  0  0  0  0  0  0  0  0  0
    0.1198    1.2075   -1.9382 H   0  0  0  0  0  0  0  0  0  0  0  0
   -0.2226   -0.5243   -1.8358 H   0  0  0  0  0  0  0  0  0  0  0  0
    0.5826    1.9447    0.9213 H   0  0  0  0  0  0  0  0  0  0  0  0
    2.5242    1.8019    2.4048 H   0  0  0  0  0  0  0  0  0  0  0  0
    4.2590    0.0799    2.0355 H   0  0  0  0  0  0  0  0  0  0  0  0
    4.0735   -1.4834    0.1569 H   0  0  0  0  0  0  0  0  0  0  0  0
  1  2  1  0
  2  3  2  0
  3  4  1  0
  4  5  2  0
  5  6  1  0
  6  7  2  0
  7  8  1  0
  8  9  1  0
  9 10  2  0
 10 11  1  0
 11 12  2  0
 12 13  1  0
 13 14  2  0
 14 15  1  0
 15 16  1  0
 15 17  2  0
 15 18  2  0
  7  2  1  0
 14  9  1  0
  1 19  1  0
  1 20  1  0
  1 21  1  0
  3 22  1  0
  4 23  1  0
  5 24  1  0
  6 25  1  0
  8 26  1  0
  8 27  1  0
 10 28  1  0
 11 29  1  0
 12 30  1  0
 13 31  1  0
M  RAD  1  16   3
M  END
$$$$
