
     RDKit          3D

 31 32  0  0  0  0  0  0  0  0999 V2000
    1.5523    0.9062    1.5039 C   0  0  0  0  0  0  0  0  0  0  0  0
    1.8628    0.3542    0.1384 C   0  0  0  0  0  0  0  0  0  0  0  0
    3.0707   -0.3438   -0.0412 C   0  0  0  0  0  0  0  0  0  0  0  0
    3.4259   -0.8425   -1.2943 C   0  0  0  0  0  0  0  0  0  0  0  0
    2.5847   -0.6475   -2.3866 C   0  0  0  0  0  0  0  0  0  0  0  0
    1.3734    0.0258   -2.2255 C   0  0  0  0  0  0  0  0  0  0  0  0
    0.9717    0.4998   -0.9609 C   0  0  0  0  0  0  0  0  0  0  0  0
   -0.3576    1.2264   -0.8558 C   0  0  0  0  0  0  0  0  0  0  0  0
   -1.2919    0.6690    0.2051 C   0  0  0  0  0  0  0  0  0  0  0  0
   -1.6711    1.5255    1.2593 C   0  0  0  0  0  0  0  0  0  0  0  0
   -2.5131    1.0827    2.2781 C   0  0  0  0  0  0  0  0  0  0  0  0
   -3.0055   -0.2180    2.2588 C   0  0  0  0  0  0  0  0  0  0  0  0
   -2.6715   -1.0756    1.2119 C   0  0  0  0  0  0  0  0  0  0  0  0
   -1.8325   -0.6490    0.1667 C   0  0  0  0  0  0  0  0  0  0  0  0
   -1.5080   -1.7963   -1.1468 S   0  0  0  0  0  0  0  0  0  0  0  0
   -1.7287   -1.0449   -2.6863 N   0  0  0  0  0  1  0  0  0  0  0  0
   -0.1080   -2.3268   -1.0270 O   0  0  0  0  0  0  0  0  0  0  0  0
   -2.4643   -2.9530   -1.0612 O   0  0  0  0  0  0  0  0  0  0  0  0
    2.4631    0.9527    2.1381 H   0  0  0  0  0  0  0  0  0  0  0  0
    0.8122    0.2544    2.0124 H   0  0  0  0  0  0  0  0  0  0  0  0
    1.1606    1.9407    1.4238 H   0  0  0  0  0  0  0  0  0  0  0  0
    3.7493   -0.4929    0.7898 H   0  0  0  0  0  0  0  0  0  0  0  0
    4.3622   -1.3705   -1.4209 H   0  0  0  0  0  0  0  0  0  0  0  0
    2.8703   -1.0205   -3.3617 H   0  0  0  0  0  0  0  0  0  0  0  0
    0.7419    0.1664   -3.0934 H   0  0  0  0  0  0  0  0  0  0  0  0
   -0.8967    1.2258   -1.8252 H   0  0  0  0  0  0  0  0  0  0  0  0
   -0.1330    2.2975   -0.6624 H   0  0  0  0  0  0  0  0  0  0  0  0
   -1.3030    2.5431    1.3035 H   0  0  0  0  0  0  0  0  0  0  0  0
   -2.7823    1.7505    3.0862 H   0  0  0  0  0  0  0  0  0  0  0  0
   -3.6556   -0.5614    3.0533 H   0  0  0  0  0  0  0  0  0  0  0  0
   -3.0783   -2.0782    1.2198 H   0  0  0  0  0  0  0  0  0  0  0  0
  1  2  1  0
  2  3  2  0
  3  4  1  0
  4  5  2  0
  5  6  1  0
  6  7  2  0
  7  8  1  0
  8  9  1  0
  9 10  2  0
 10 11  1  0
 11 12  2  0
 12 13  1  0
 13 14  2  0
 14 15  1  0
 15 16  1  0
 15 17  2  0
 15 18  2  0
  7  2  1  0
 14  9  1  0
  1 19  1  0
  1 20  1  0
  1 21  1  0
  3 22  1  0
  4 23  1  0
  5 24  1  0
  6 25  1  0
  8 26  1  0
  8 27  1  0
 10 28  1  0
 11 29  1  0
 12 30  1  0
 13 31  1  0
M  RAD  1  16   3
M  END
$$$$
