
     RDKit          3D

 34 35  0  0  0  0  0  0  0  0999 V2000
    2.4268   -0.2079    2.4365 N   0  0  0  0  0  1  0  0  0  0  0  0
    3.1549   -0.2917    1.2132 C   0  0  0  0  0  0  0  0  0  0  0  0
    4.5198    0.0205    1.2086 C   0  0  0  0  0  0  0  0  0  0  0  0
    5.2520   -0.0396    0.0205 C   0  0  0  0  0  0  0  0  0  0  0  0
    4.6229   -0.4075   -1.1704 C   0  0  0  0  0  0  0  0  0  0  0  0
    3.2611   -0.7211   -1.1759 C   0  0  0  0  0  0  0  0  0  0  0  0
    2.5158   -0.6792    0.0156 C   0  0  0  0  0  0  0  0  0  0  0  0
    1.0389   -0.9897   -0.0199 C   0  0  0  0  0  0  0  0  0  0  0  0
    0.2216    0.2987   -0.2008 C   0  0  0  0  0  0  0  0  0  0  0  0
   -1.2875    0.0306   -0.4003 C   0  0  0  0  0  0  0  0  0  0  0  0
   -1.9890    1.3244   -0.8666 C   0  0  0  0  0  0  0  0  0  0  0  0
   -3.4951    1.1076   -1.0552 C   0  0  0  0  0  0  0  0  0  0  0  0
   -4.1393    0.5901    0.2344 C   0  0  0  0  0  0  0  0  0  0  0  0
   -3.4599   -0.7006    0.7023 C   0  0  0  0  0  0  0  0  0  0  0  0
   -1.9516   -0.4951    0.8932 C   0  0  0  0  0  0  0  0  0  0  0  0
    5.0137    0.3140    2.1266 H   0  0  0  0  0  0  0  0  0  0  0  0
    6.3065    0.2041    0.0222 H   0  0  0  0  0  0  0  0  0  0  0  0
    5.1903   -0.4465   -2.0913 H   0  0  0  0  0  0  0  0  0  0  0  0
    2.7867   -0.9953   -2.1101 H   0  0  0  0  0  0  0  0  0  0  0  0
    0.8220   -1.6904   -0.8560 H   0  0  0  0  0  0  0  0  0  0  0  0
    0.7489   -1.5063    0.9184 H   0  0  0  0  0  0  0  0  0  0  0  0
    0.6118    0.8306   -1.0974 H   0  0  0  0  0  0  0  0  0  0  0  0
    0.3737    0.9652    0.6769 H   0  0  0  0  0  0  0  0  0  0  0  0
   -1.4080   -0.7338   -1.2012 H   0  0  0  0  0  0  0  0  0  0  0  0
   -1.5563    1.6573   -1.8353 H   0  0  0  0  0  0  0  0  0  0  0  0
   -1.8252    2.1354   -0.1223 H   0  0  0  0  0  0  0  0  0  0  0  0
   -3.9712    2.0700   -1.3418 H   0  0  0  0  0  0  0  0  0  0  0  0
   -3.6686    0.3807   -1.8791 H   0  0  0  0  0  0  0  0  0  0  0  0
   -4.0615    1.3641    1.0295 H   0  0  0  0  0  0  0  0  0  0  0  0
   -5.2175    0.3922    0.0524 H   0  0  0  0  0  0  0  0  0  0  0  0
   -3.6353   -1.5067   -0.0439 H   0  0  0  0  0  0  0  0  0  0  0  0
   -3.9109   -1.0228    1.6655 H   0  0  0  0  0  0  0  0  0  0  0  0
   -1.7803    0.2204    1.7278 H   0  0  0  0  0  0  0  0  0  0  0  0
   -1.5103   -1.4716    1.1817 H   0  0  0  0  0  0  0  0  0  0  0  0
  1  2  1  0
  2  3  2  0
  3  4  1  0
  4  5  2  0
  5  6  1  0
  6  7  2  0
  7  8  1  0
  8  9  1  0
  9 10  1  0
 10 11  1  0
 11 12  1  0
 12 13  1  0
 13 14  1  0
 14 15  1  0
  7  2  1  0
 15 10  1  0
  3 16  1  0
  4 17  1  0
  5 18  1  0
  6 19  1  0
  8 20  1  0
  8 21  1  0
  9 22  1  0
  9 23  1  0
 10 24  1  0
 11 25  1  0
 11 26  1  0
 12 27  1  0
 12 28  1  0
 13 29  1  0
 13 30  1  0
 14 31  1  0
 14 32  1  0
 15 33  1  0
 15 34  1  0
M  RAD  1   1   3
M  END
$$$$
