
     RDKit          3D

 34 35  0  0  0  0  0  0  0  0999 V2000
   -2.3995   -2.1378   -1.3314 N   0  0  0  0  0  1  0  0  0  0  0  0
   -3.1455   -1.1765   -0.5878 C   0  0  0  0  0  0  0  0  0  0  0  0
   -4.5007   -0.9867   -0.8842 C   0  0  0  0  0  0  0  0  0  0  0  0
   -5.2497   -0.0408   -0.1802 C   0  0  0  0  0  0  0  0  0  0  0  0
   -4.6472    0.7238    0.8207 C   0  0  0  0  0  0  0  0  0  0  0  0
   -3.2952    0.5413    1.1238 C   0  0  0  0  0  0  0  0  0  0  0  0
   -2.5336   -0.4177    0.4333 C   0  0  0  0  0  0  0  0  0  0  0  0
   -1.0669   -0.5745    0.7546 C   0  0  0  0  0  0  0  0  0  0  0  0
   -0.2149    0.3042   -0.1742 C   0  0  0  0  0  0  0  0  0  0  0  0
    1.2830    0.3062    0.2069 C   0  0  0  0  0  0  0  0  0  0  0  0
    2.0158    1.4230   -0.5672 C   0  0  0  0  0  0  0  0  0  0  0  0
    3.5123    1.4454   -0.2345 C   0  0  0  0  0  0  0  0  0  0  0  0
    4.1579    0.0871   -0.5249 C   0  0  0  0  0  0  0  0  0  0  0  0
    3.4474   -1.0294    0.2464 C   0  0  0  0  0  0  0  0  0  0  0  0
    1.9483   -1.0600   -0.0784 C   0  0  0  0  0  0  0  0  0  0  0  0
   -4.9738   -1.5702   -1.6640 H   0  0  0  0  0  0  0  0  0  0  0  0
   -6.2966    0.1032   -0.4142 H   0  0  0  0  0  0  0  0  0  0  0  0
   -5.2273    1.4613    1.3601 H   0  0  0  0  0  0  0  0  0  0  0  0
   -2.8412    1.1495    1.8965 H   0  0  0  0  0  0  0  0  0  0  0  0
   -0.8814   -0.2887    1.8134 H   0  0  0  0  0  0  0  0  0  0  0  0
   -0.7799   -1.6415    0.6526 H   0  0  0  0  0  0  0  0  0  0  0  0
   -0.3362   -0.0356   -1.2265 H   0  0  0  0  0  0  0  0  0  0  0  0
   -0.6010    1.3463   -0.1117 H   0  0  0  0  0  0  0  0  0  0  0  0
    1.3708    0.5272    1.2949 H   0  0  0  0  0  0  0  0  0  0  0  0
    1.8853    1.2753   -1.6625 H   0  0  0  0  0  0  0  0  0  0  0  0
    1.5804    2.4111   -0.3016 H   0  0  0  0  0  0  0  0  0  0  0  0
    4.0125    2.2268   -0.8461 H   0  0  0  0  0  0  0  0  0  0  0  0
    3.6539    1.7064    0.8374 H   0  0  0  0  0  0  0  0  0  0  0  0
    4.1131   -0.1240   -1.6162 H   0  0  0  0  0  0  0  0  0  0  0  0
    5.2275    0.1174   -0.2250 H   0  0  0  0  0  0  0  0  0  0  0  0
    3.9013   -2.0070   -0.0243 H   0  0  0  0  0  0  0  0  0  0  0  0
    3.5896   -0.8773    1.3391 H   0  0  0  0  0  0  0  0  0  0  0  0
    1.8088   -1.3364   -1.1470 H   0  0  0  0  0  0  0  0  0  0  0  0
    1.4826   -1.8513    0.5449 H   0  0  0  0  0  0  0  0  0  0  0  0
  1  2  1  0
  2  3  2  0
  3  4  1  0
  4  5  2  0
  5  6  1  0
  6  7  2  0
  7  8  1  0
  8  9  1  0
  9 10  1  0
 10 11  1  0
 11 12  1  0
 12 13  1  0
 13 14  1  0
 14 15  1  0
  7  2  1  0
 15 10  1  0
  3 16  1  0
  4 17  1  0
  5 18  1  0
  6 19  1  0
  8 20  1  0
  8 21  1  0
  9 22  1  0
  9 23  1  0
 10 24  1  0
 11 25  1  0
 11 26  1  0
 12 27  1  0
 12 28  1  0
 13 29  1  0
 13 30  1  0
 14 31  1  0
 14 32  1  0
 15 33  1  0
 15 34  1  0
M  RAD  1   1   3
M  END
$$$$
