
     RDKit          3D

 34 35  0  0  0  0  0  0  0  0999 V2000
    2.1590    2.4256    1.3480 N   0  0  0  0  0  1  0  0  0  0  0  0
    2.8870    1.4946    0.5499 C   0  0  0  0  0  0  0  0  0  0  0  0
    4.2847    1.5712    0.5165 C   0  0  0  0  0  0  0  0  0  0  0  0
    5.0218    0.6612   -0.2449 C   0  0  0  0  0  0  0  0  0  0  0  0
    4.3664   -0.3335   -0.9732 C   0  0  0  0  0  0  0  0  0  0  0  0
    2.9718   -0.4178   -0.9463 C   0  0  0  0  0  0  0  0  0  0  0  0
    2.2168    0.5014   -0.1966 C   0  0  0  0  0  0  0  0  0  0  0  0
    0.7136    0.3702   -0.1562 C   0  0  0  0  0  0  0  0  0  0  0  0
    0.2859   -0.5123    1.0311 C   0  0  0  0  0  0  0  0  0  0  0  0
   -1.2424   -0.7085    1.1833 C   0  0  0  0  0  0  0  0  0  0  0  0
   -2.0198    0.6273    1.3566 C   0  0  0  0  0  0  0  0  0  0  0  0
   -2.8015    1.0137    0.0945 C   0  0  0  0  0  0  0  0  0  0  0  0
   -3.8223   -0.0723   -0.2998 C   0  0  0  0  0  0  0  0  0  0  0  0
   -3.3603   -1.5058    0.0358 C   0  0  0  0  0  0  0  0  0  0  0  0
   -1.8331   -1.6174    0.0753 C   0  0  0  0  0  0  0  0  0  0  0  0
    4.8013    2.3346    1.0847 H   0  0  0  0  0  0  0  0  0  0  0  0
    6.1022    0.7238   -0.2661 H   0  0  0  0  0  0  0  0  0  0  0  0
    4.9397   -1.0423   -1.5567 H   0  0  0  0  0  0  0  0  0  0  0  0
    2.4796   -1.2014   -1.5093 H   0  0  0  0  0  0  0  0  0  0  0  0
    0.2578    1.3786   -0.0789 H   0  0  0  0  0  0  0  0  0  0  0  0
    0.3615   -0.0660   -1.1132 H   0  0  0  0  0  0  0  0  0  0  0  0
    0.6736   -0.0590    1.9703 H   0  0  0  0  0  0  0  0  0  0  0  0
    0.7658   -1.5113    0.9323 H   0  0  0  0  0  0  0  0  0  0  0  0
   -1.3739   -1.2663    2.1386 H   0  0  0  0  0  0  0  0  0  0  0  0
   -2.7486    0.5183    2.1906 H   0  0  0  0  0  0  0  0  0  0  0  0
   -1.3399    1.4570    1.6465 H   0  0  0  0  0  0  0  0  0  0  0  0
   -3.3321    1.9751    0.2658 H   0  0  0  0  0  0  0  0  0  0  0  0
   -2.0899    1.1718   -0.7443 H   0  0  0  0  0  0  0  0  0  0  0  0
   -4.0168    0.0061   -1.3916 H   0  0  0  0  0  0  0  0  0  0  0  0
   -4.7853    0.1224    0.2208 H   0  0  0  0  0  0  0  0  0  0  0  0
   -3.7657   -2.2131   -0.7197 H   0  0  0  0  0  0  0  0  0  0  0  0
   -3.7689   -1.8047    1.0265 H   0  0  0  0  0  0  0  0  0  0  0  0
   -1.5464   -2.6737    0.2706 H   0  0  0  0  0  0  0  0  0  0  0  0
   -1.4414   -1.3475   -0.9265 H   0  0  0  0  0  0  0  0  0  0  0  0
  1  2  1  0
  2  3  2  0
  3  4  1  0
  4  5  2  0
  5  6  1  0
  6  7  2  0
  7  8  1  0
  8  9  1  0
  9 10  1  0
 10 11  1  0
 11 12  1  0
 12 13  1  0
 13 14  1  0
 14 15  1  0
  7  2  1  0
 15 10  1  0
  3 16  1  0
  4 17  1  0
  5 18  1  0
  6 19  1  0
  8 20  1  0
  8 21  1  0
  9 22  1  0
  9 23  1  0
 10 24  1  0
 11 25  1  0
 11 26  1  0
 12 27  1  0
 12 28  1  0
 13 29  1  0
 13 30  1  0
 14 31  1  0
 14 32  1  0
 15 33  1  0
 15 34  1  0
M  RAD  1   1   3
M  END
$$$$
