
     RDKit          3D

 34 35  0  0  0  0  0  0  0  0999 V2000
   -1.6400   -0.8777   -2.2875 N   0  0  0  0  0  1  0  0  0  0  0  0
   -2.2077   -0.1942   -1.1723 C   0  0  0  0  0  0  0  0  0  0  0  0
   -2.9943    0.9409   -1.4026 C   0  0  0  0  0  0  0  0  0  0  0  0
   -3.5581    1.6374   -0.3317 C   0  0  0  0  0  0  0  0  0  0  0  0
   -3.3433    1.2008    0.9762 C   0  0  0  0  0  0  0  0  0  0  0  0
   -2.5600    0.0695    1.2176 C   0  0  0  0  0  0  0  0  0  0  0  0
   -1.9721   -0.6340    0.1506 C   0  0  0  0  0  0  0  0  0  0  0  0
   -1.1297   -1.8547    0.4439 C   0  0  0  0  0  0  0  0  0  0  0  0
    0.1572   -1.5525    1.2435 C   0  0  0  0  0  0  0  0  0  0  0  0
    1.2536   -0.6937    0.5592 C   0  0  0  0  0  0  0  0  0  0  0  0
    0.8742    0.7900    0.3912 C   0  0  0  0  0  0  0  0  0  0  0  0
    2.1063    1.6400    0.0167 C   0  0  0  0  0  0  0  0  0  0  0  0
    3.1625    0.8646   -0.8003 C   0  0  0  0  0  0  0  0  0  0  0  0
    2.5306   -0.2524   -1.6403 C   0  0  0  0  0  0  0  0  0  0  0  0
    1.7875   -1.2891   -0.7691 C   0  0  0  0  0  0  0  0  0  0  0  0
   -3.1686    1.2852   -2.4143 H   0  0  0  0  0  0  0  0  0  0  0  0
   -4.1650    2.5143   -0.5163 H   0  0  0  0  0  0  0  0  0  0  0  0
   -3.7861    1.7383    1.8047 H   0  0  0  0  0  0  0  0  0  0  0  0
   -2.4116   -0.2584    2.2388 H   0  0  0  0  0  0  0  0  0  0  0  0
   -1.7496   -2.5446    1.0570 H   0  0  0  0  0  0  0  0  0  0  0  0
   -0.8942   -2.4307   -0.4719 H   0  0  0  0  0  0  0  0  0  0  0  0
    0.6159   -2.5313    1.5054 H   0  0  0  0  0  0  0  0  0  0  0  0
   -0.1160   -1.0801    2.2118 H   0  0  0  0  0  0  0  0  0  0  0  0
    2.1072   -0.7076    1.2759 H   0  0  0  0  0  0  0  0  0  0  0  0
    0.4254    1.1864    1.3278 H   0  0  0  0  0  0  0  0  0  0  0  0
    0.1283    0.8970   -0.4206 H   0  0  0  0  0  0  0  0  0  0  0  0
    1.7658    2.5242   -0.5654 H   0  0  0  0  0  0  0  0  0  0  0  0
    2.5856    2.0217    0.9444 H   0  0  0  0  0  0  0  0  0  0  0  0
    3.9100    0.4153   -0.1100 H   0  0  0  0  0  0  0  0  0  0  0  0
    3.7056    1.5689   -1.4669 H   0  0  0  0  0  0  0  0  0  0  0  0
    3.3199   -0.7633   -2.2329 H   0  0  0  0  0  0  0  0  0  0  0  0
    1.8162    0.2052   -2.3602 H   0  0  0  0  0  0  0  0  0  0  0  0
    2.4768   -2.1284   -0.5298 H   0  0  0  0  0  0  0  0  0  0  0  0
    0.9676   -1.7072   -1.3840 H   0  0  0  0  0  0  0  0  0  0  0  0
  1  2  1  0
  2  3  2  0
  3  4  1  0
  4  5  2  0
  5  6  1  0
  6  7  2  0
  7  8  1  0
  8  9  1  0
  9 10  1  0
 10 11  1  0
 11 12  1  0
 12 13  1  0
 13 14  1  0
 14 15  1  0
  7  2  1  0
 15 10  1  0
  3 16  1  0
  4 17  1  0
  5 18  1  0
  6 19  1  0
  8 20  1  0
  8 21  1  0
  9 22  1  0
  9 23  1  0
 10 24  1  0
 11 25  1  0
 11 26  1  0
 12 27  1  0
 12 28  1  0
 13 29  1  0
 13 30  1  0
 14 31  1  0
 14 32  1  0
 15 33  1  0
 15 34  1  0
M  RAD  1   1   3
M  END
$$$$
