
     RDKit          3D

 34 35  0  0  0  0  0  0  0  0999 V2000
    2.2475    1.7606    2.0063 N   0  0  0  0  0  1  0  0  0  0  0  0
    2.9430    1.1498    0.9214 C   0  0  0  0  0  0  0  0  0  0  0  0
    4.3428    1.1762    0.9070 C   0  0  0  0  0  0  0  0  0  0  0  0
    5.0479    0.5714   -0.1361 C   0  0  0  0  0  0  0  0  0  0  0  0
    4.3580   -0.0675   -1.1682 C   0  0  0  0  0  0  0  0  0  0  0  0
    2.9609   -0.0990   -1.1628 C   0  0  0  0  0  0  0  0  0  0  0  0
    2.2384    0.5193   -0.1270 C   0  0  0  0  0  0  0  0  0  0  0  0
    0.7309    0.4437   -0.1250 C   0  0  0  0  0  0  0  0  0  0  0  0
    0.2587   -0.7883    0.6689 C   0  0  0  0  0  0  0  0  0  0  0  0
   -1.2775   -0.9633    0.7527 C   0  0  0  0  0  0  0  0  0  0  0  0
   -1.8973   -1.3874   -0.6033 C   0  0  0  0  0  0  0  0  0  0  0  0
   -3.4183   -1.2068   -0.5873 C   0  0  0  0  0  0  0  0  0  0  0  0
   -3.8186    0.2690   -0.3805 C   0  0  0  0  0  0  0  0  0  0  0  0
   -2.7567    1.0977    0.3696 C   0  0  0  0  0  0  0  0  0  0  0  0
   -2.0004    0.2513    1.4015 C   0  0  0  0  0  0  0  0  0  0  0  0
    4.8858    1.6628    1.7077 H   0  0  0  0  0  0  0  0  0  0  0  0
    6.1301    0.5934   -0.1417 H   0  0  0  0  0  0  0  0  0  0  0  0
    4.9063   -0.5420   -1.9717 H   0  0  0  0  0  0  0  0  0  0  0  0
    2.4415   -0.6071   -1.9660 H   0  0  0  0  0  0  0  0  0  0  0  0
    0.3685    0.3954   -1.1721 H   0  0  0  0  0  0  0  0  0  0  0  0
    0.3159    1.3746    0.3131 H   0  0  0  0  0  0  0  0  0  0  0  0
    0.6977   -1.7037    0.2135 H   0  0  0  0  0  0  0  0  0  0  0  0
    0.6579   -0.7195    1.7051 H   0  0  0  0  0  0  0  0  0  0  0  0
   -1.4387   -1.8216    1.4444 H   0  0  0  0  0  0  0  0  0  0  0  0
   -1.4878   -0.7912   -1.4439 H   0  0  0  0  0  0  0  0  0  0  0  0
   -1.6555   -2.4540   -0.8037 H   0  0  0  0  0  0  0  0  0  0  0  0
   -3.8457   -1.8253    0.2327 H   0  0  0  0  0  0  0  0  0  0  0  0
   -3.8471   -1.5775   -1.5434 H   0  0  0  0  0  0  0  0  0  0  0  0
   -4.0023    0.7431   -1.3693 H   0  0  0  0  0  0  0  0  0  0  0  0
   -4.7763    0.3024    0.1834 H   0  0  0  0  0  0  0  0  0  0  0  0
   -2.0334    1.5177   -0.3621 H   0  0  0  0  0  0  0  0  0  0  0  0
   -3.2485    1.9539    0.8798 H   0  0  0  0  0  0  0  0  0  0  0  0
   -1.2889    0.8926    1.9648 H   0  0  0  0  0  0  0  0  0  0  0  0
   -2.7389   -0.1205    2.1465 H   0  0  0  0  0  0  0  0  0  0  0  0
  1  2  1  0
  2  3  2  0
  3  4  1  0
  4  5  2  0
  5  6  1  0
  6  7  2  0
  7  8  1  0
  8  9  1  0
  9 10  1  0
 10 11  1  0
 11 12  1  0
 12 13  1  0
 13 14  1  0
 14 15  1  0
  7  2  1  0
 15 10  1  0
  3 16  1  0
  4 17  1  0
  5 18  1  0
  6 19  1  0
  8 20  1  0
  8 21  1  0
  9 22  1  0
  9 23  1  0
 10 24  1  0
 11 25  1  0
 11 26  1  0
 12 27  1  0
 12 28  1  0
 13 29  1  0
 13 30  1  0
 14 31  1  0
 14 32  1  0
 15 33  1  0
 15 34  1  0
M  RAD  1   1   3
M  END
$$$$
