
     RDKit          3D

 34 35  0  0  0  0  0  0  0  0999 V2000
    2.3682    1.8852    1.6005 N   0  0  0  0  0  1  0  0  0  0  0  0
    3.1267    1.1048    0.6788 C   0  0  0  0  0  0  0  0  0  0  0  0
    4.4876    0.8882    0.9264 C   0  0  0  0  0  0  0  0  0  0  0  0
    5.2491    0.1152    0.0467 C   0  0  0  0  0  0  0  0  0  0  0  0
    4.6534   -0.4493   -1.0829 C   0  0  0  0  0  0  0  0  0  0  0  0
    3.2958   -0.2385   -1.3386 C   0  0  0  0  0  0  0  0  0  0  0  0
    2.5213    0.5497   -0.4693 C   0  0  0  0  0  0  0  0  0  0  0  0
    1.0494    0.7365   -0.7474 C   0  0  0  0  0  0  0  0  0  0  0  0
    0.2220   -0.3253   -0.0067 C   0  0  0  0  0  0  0  0  0  0  0  0
   -1.2786   -0.2829   -0.3746 C   0  0  0  0  0  0  0  0  0  0  0  0
   -1.9833   -1.5453    0.1670 C   0  0  0  0  0  0  0  0  0  0  0  0
   -3.4818   -1.5324   -0.1574 C   0  0  0  0  0  0  0  0  0  0  0  0
   -4.1512   -0.2716    0.3979 C   0  0  0  0  0  0  0  0  0  0  0  0
   -3.4687    0.9894   -0.1410 C   0  0  0  0  0  0  0  0  0  0  0  0
   -1.9679    0.9862    0.1773 C   0  0  0  0  0  0  0  0  0  0  0  0
    4.9556    1.3162    1.8041 H   0  0  0  0  0  0  0  0  0  0  0  0
    6.3004   -0.0505    0.2434 H   0  0  0  0  0  0  0  0  0  0  0  0
    5.2434   -1.0539   -1.7596 H   0  0  0  0  0  0  0  0  0  0  0  0
    2.8474   -0.6917   -2.2142 H   0  0  0  0  0  0  0  0  0  0  0  0
    0.7426    1.7564   -0.4359 H   0  0  0  0  0  0  0  0  0  0  0  0
    0.8609    0.6613   -1.8410 H   0  0  0  0  0  0  0  0  0  0  0  0
    0.3452   -0.1972    1.0915 H   0  0  0  0  0  0  0  0  0  0  0  0
    0.6277   -1.3265   -0.2751 H   0  0  0  0  0  0  0  0  0  0  0  0
   -1.3709   -0.2869   -1.4844 H   0  0  0  0  0  0  0  0  0  0  0  0
   -1.5310   -2.4524   -0.2901 H   0  0  0  0  0  0  0  0  0  0  0  0
   -1.8469   -1.6137    1.2694 H   0  0  0  0  0  0  0  0  0  0  0  0
   -3.6270   -1.5798   -1.2592 H   0  0  0  0  0  0  0  0  0  0  0  0
   -3.9618   -2.4292    0.2901 H   0  0  0  0  0  0  0  0  0  0  0  0
   -4.1016   -0.2789    1.5091 H   0  0  0  0  0  0  0  0  0  0  0  0
   -5.2223   -0.2642    0.1022 H   0  0  0  0  0  0  0  0  0  0  0  0
   -3.9392    1.8849    0.3191 H   0  0  0  0  0  0  0  0  0  0  0  0
   -3.6167    1.0528   -1.2416 H   0  0  0  0  0  0  0  0  0  0  0  0
   -1.5226    1.8943   -0.2795 H   0  0  0  0  0  0  0  0  0  0  0  0
   -1.8251    1.0493    1.2789 H   0  0  0  0  0  0  0  0  0  0  0  0
  1  2  1  0
  2  3  2  0
  3  4  1  0
  4  5  2  0
  5  6  1  0
  6  7  2  0
  7  8  1  0
  8  9  1  0
  9 10  1  0
 10 11  1  0
 11 12  1  0
 12 13  1  0
 13 14  1  0
 14 15  1  0
  7  2  1  0
 15 10  1  0
  3 16  1  0
  4 17  1  0
  5 18  1  0
  6 19  1  0
  8 20  1  0
  8 21  1  0
  9 22  1  0
  9 23  1  0
 10 24  1  0
 11 25  1  0
 11 26  1  0
 12 27  1  0
 12 28  1  0
 13 29  1  0
 13 30  1  0
 14 31  1  0
 14 32  1  0
 15 33  1  0
 15 34  1  0
M  RAD  1   1   3
M  END
$$$$
