
     RDKit          3D

 34 35  0  0  0  0  0  0  0  0999 V2000
   -3.1546   -0.7902   -1.9255 N   0  0  0  0  0  1  0  0  0  0  0  0
   -3.3287   -0.0263   -0.7341 C   0  0  0  0  0  0  0  0  0  0  0  0
   -4.5707   -0.0439   -0.0877 C   0  0  0  0  0  0  0  0  0  0  0  0
   -4.7619    0.6818    1.0904 C   0  0  0  0  0  0  0  0  0  0  0  0
   -3.7113    1.4252    1.6318 C   0  0  0  0  0  0  0  0  0  0  0  0
   -2.4683    1.4493    0.9938 C   0  0  0  0  0  0  0  0  0  0  0  0
   -2.2670    0.7364   -0.2013 C   0  0  0  0  0  0  0  0  0  0  0  0
   -0.9055    0.7498   -0.8534 C   0  0  0  0  0  0  0  0  0  0  0  0
   -0.0401   -0.4013   -0.3174 C   0  0  0  0  0  0  0  0  0  0  0  0
    1.2873   -0.5858   -1.0985 C   0  0  0  0  0  0  0  0  0  0  0  0
    2.2188    0.6445   -1.0091 C   0  0  0  0  0  0  0  0  0  0  0  0
    2.7594    0.8734    0.4150 C   0  0  0  0  0  0  0  0  0  0  0  0
    3.0676   -0.4351    1.1725 C   0  0  0  0  0  0  0  0  0  0  0  0
    3.2765   -1.6190    0.2239 C   0  0  0  0  0  0  0  0  0  0  0  0
    2.0296   -1.8784   -0.6451 C   0  0  0  0  0  0  0  0  0  0  0  0
   -5.3882   -0.6247   -0.4964 H   0  0  0  0  0  0  0  0  0  0  0  0
   -5.7234    0.6635    1.5870 H   0  0  0  0  0  0  0  0  0  0  0  0
   -3.8590    1.9807    2.5489 H   0  0  0  0  0  0  0  0  0  0  0  0
   -1.6609    2.0228    1.4325 H   0  0  0  0  0  0  0  0  0  0  0  0
   -1.0090    0.6695   -1.9570 H   0  0  0  0  0  0  0  0  0  0  0  0
   -0.4147    1.7234   -0.6426 H   0  0  0  0  0  0  0  0  0  0  0  0
    0.1611   -0.2364    0.7620 H   0  0  0  0  0  0  0  0  0  0  0  0
   -0.6283   -1.3420   -0.4043 H   0  0  0  0  0  0  0  0  0  0  0  0
    1.0170   -0.7188   -2.1703 H   0  0  0  0  0  0  0  0  0  0  0  0
    1.7152    1.5624   -1.3754 H   0  0  0  0  0  0  0  0  0  0  0  0
    3.0802    0.4791   -1.6936 H   0  0  0  0  0  0  0  0  0  0  0  0
    3.6850    1.4854    0.3450 H   0  0  0  0  0  0  0  0  0  0  0  0
    2.0208    1.4647    0.9988 H   0  0  0  0  0  0  0  0  0  0  0  0
    2.2328   -0.6736    1.8668 H   0  0  0  0  0  0  0  0  0  0  0  0
    3.9793   -0.2968    1.7931 H   0  0  0  0  0  0  0  0  0  0  0  0
    4.1513   -1.4103   -0.4306 H   0  0  0  0  0  0  0  0  0  0  0  0
    3.5122   -2.5307    0.8144 H   0  0  0  0  0  0  0  0  0  0  0  0
    1.3432   -2.5536   -0.0882 H   0  0  0  0  0  0  0  0  0  0  0  0
    2.3543   -2.4448   -1.5454 H   0  0  0  0  0  0  0  0  0  0  0  0
  1  2  1  0
  2  3  2  0
  3  4  1  0
  4  5  2  0
  5  6  1  0
  6  7  2  0
  7  8  1  0
  8  9  1  0
  9 10  1  0
 10 11  1  0
 11 12  1  0
 12 13  1  0
 13 14  1  0
 14 15  1  0
  7  2  1  0
 15 10  1  0
  3 16  1  0
  4 17  1  0
  5 18  1  0
  6 19  1  0
  8 20  1  0
  8 21  1  0
  9 22  1  0
  9 23  1  0
 10 24  1  0
 11 25  1  0
 11 26  1  0
 12 27  1  0
 12 28  1  0
 13 29  1  0
 13 30  1  0
 14 31  1  0
 14 32  1  0
 15 33  1  0
 15 34  1  0
M  RAD  1   1   3
M  END
$$$$
