
     RDKit          3D

 34 35  0  0  0  0  0  0  0  0999 V2000
   -2.2485    1.3739   -2.4214 N   0  0  0  0  0  1  0  0  0  0  0  0
   -3.0664    0.6933   -1.4719 C   0  0  0  0  0  0  0  0  0  0  0  0
   -4.4115    1.0597   -1.3429 C   0  0  0  0  0  0  0  0  0  0  0  0
   -5.2298    0.4184   -0.4099 C   0  0  0  0  0  0  0  0  0  0  0  0
   -4.7068   -0.5895    0.4024 C   0  0  0  0  0  0  0  0  0  0  0  0
   -3.3655   -0.9624    0.2809 C   0  0  0  0  0  0  0  0  0  0  0  0
   -2.5348   -0.3354   -0.6645 C   0  0  0  0  0  0  0  0  0  0  0  0
   -1.0809   -0.7313   -0.7554 C   0  0  0  0  0  0  0  0  0  0  0  0
   -0.2182    0.1784    0.1326 C   0  0  0  0  0  0  0  0  0  0  0  0
    1.2580   -0.2744    0.2030 C   0  0  0  0  0  0  0  0  0  0  0  0
    1.9880   -0.0584   -1.1427 C   0  0  0  0  0  0  0  0  0  0  0  0
    3.4670   -0.4542   -1.0451 C   0  0  0  0  0  0  0  0  0  0  0  0
    4.1717    0.3116    0.0789 C   0  0  0  0  0  0  0  0  0  0  0  0
    3.4614    0.0893    1.4175 C   0  0  0  0  0  0  0  0  0  0  0  0
    1.9850    0.4931    1.3281 C   0  0  0  0  0  0  0  0  0  0  0  0
   -4.8231    1.8456   -1.9639 H   0  0  0  0  0  0  0  0  0  0  0  0
   -6.2686    0.7065   -0.3132 H   0  0  0  0  0  0  0  0  0  0  0  0
   -5.3405   -1.0804    1.1298 H   0  0  0  0  0  0  0  0  0  0  0  0
   -2.9736   -1.7396    0.9255 H   0  0  0  0  0  0  0  0  0  0  0  0
   -0.9588   -1.7898   -0.4362 H   0  0  0  0  0  0  0  0  0  0  0  0
   -0.7488   -0.6721   -1.8125 H   0  0  0  0  0  0  0  0  0  0  0  0
   -0.2744    1.2259   -0.2379 H   0  0  0  0  0  0  0  0  0  0  0  0
   -0.6462    0.1627    1.1600 H   0  0  0  0  0  0  0  0  0  0  0  0
    1.2836   -1.3590    0.4544 H   0  0  0  0  0  0  0  0  0  0  0  0
    1.9120    1.0080   -1.4509 H   0  0  0  0  0  0  0  0  0  0  0  0
    1.5225   -0.6794   -1.9359 H   0  0  0  0  0  0  0  0  0  0  0  0
    3.5493   -1.5480   -0.8603 H   0  0  0  0  0  0  0  0  0  0  0  0
    3.9705   -0.2321   -2.0106 H   0  0  0  0  0  0  0  0  0  0  0  0
    4.1888    1.3977   -0.1610 H   0  0  0  0  0  0  0  0  0  0  0  0
    5.2233   -0.0388    0.1586 H   0  0  0  0  0  0  0  0  0  0  0  0
    3.5400   -0.9808    1.7106 H   0  0  0  0  0  0  0  0  0  0  0  0
    3.9611    0.6968    2.2025 H   0  0  0  0  0  0  0  0  0  0  0  0
    1.4998    0.2755    2.3046 H   0  0  0  0  0  0  0  0  0  0  0  0
    1.9144    1.5891    1.1480 H   0  0  0  0  0  0  0  0  0  0  0  0
  1  2  1  0
  2  3  2  0
  3  4  1  0
  4  5  2  0
  5  6  1  0
  6  7  2  0
  7  8  1  0
  8  9  1  0
  9 10  1  0
 10 11  1  0
 11 12  1  0
 12 13  1  0
 13 14  1  0
 14 15  1  0
  7  2  1  0
 15 10  1  0
  3 16  1  0
  4 17  1  0
  5 18  1  0
  6 19  1  0
  8 20  1  0
  8 21  1  0
  9 22  1  0
  9 23  1  0
 10 24  1  0
 11 25  1  0
 11 26  1  0
 12 27  1  0
 12 28  1  0
 13 29  1  0
 13 30  1  0
 14 31  1  0
 14 32  1  0
 15 33  1  0
 15 34  1  0
M  RAD  1   1   3
M  END
$$$$
