
     RDKit          3D

 34 35  0  0  0  0  0  0  0  0999 V2000
    2.2852   -0.6661    2.5293 N   0  0  0  0  0  1  0  0  0  0  0  0
    3.0888   -0.3473    1.3951 C   0  0  0  0  0  0  0  0  0  0  0  0
    4.4196   -0.7810    1.3580 C   0  0  0  0  0  0  0  0  0  0  0  0
    5.2231   -0.4943    0.2520 C   0  0  0  0  0  0  0  0  0  0  0  0
    4.6996    0.2234   -0.8251 C   0  0  0  0  0  0  0  0  0  0  0  0
    3.3725    0.6607   -0.7973 C   0  0  0  0  0  0  0  0  0  0  0  0
    2.5573    0.3919    0.3163 C   0  0  0  0  0  0  0  0  0  0  0  0
    1.1174    0.8451    0.3104 C   0  0  0  0  0  0  0  0  0  0  0  0
    0.2042   -0.2684   -0.2250 C   0  0  0  0  0  0  0  0  0  0  0  0
   -1.2618    0.1887   -0.4013 C   0  0  0  0  0  0  0  0  0  0  0  0
   -1.9533    0.4324    0.9599 C   0  0  0  0  0  0  0  0  0  0  0  0
   -3.4243    0.8270    0.7758 C   0  0  0  0  0  0  0  0  0  0  0  0
   -4.1837   -0.2296   -0.0325 C   0  0  0  0  0  0  0  0  0  0  0  0
   -3.5115   -0.4644   -1.3886 C   0  0  0  0  0  0  0  0  0  0  0  0
   -2.0434   -0.8691   -1.2097 C   0  0  0  0  0  0  0  0  0  0  0  0
    4.8312   -1.3446    2.1860 H   0  0  0  0  0  0  0  0  0  0  0  0
    6.2508   -0.8330    0.2276 H   0  0  0  0  0  0  0  0  0  0  0  0
    5.3216    0.4384   -1.6844 H   0  0  0  0  0  0  0  0  0  0  0  0
    2.9795    1.2079   -1.6453 H   0  0  0  0  0  0  0  0  0  0  0  0
    0.8181    1.1331    1.3393 H   0  0  0  0  0  0  0  0  0  0  0  0
    1.0115    1.7526   -0.3239 H   0  0  0  0  0  0  0  0  0  0  0  0
    0.5993   -0.5916   -1.2142 H   0  0  0  0  0  0  0  0  0  0  0  0
    0.2462   -1.1471    0.4560 H   0  0  0  0  0  0  0  0  0  0  0  0
   -1.2684    1.1391   -0.9818 H   0  0  0  0  0  0  0  0  0  0  0  0
   -1.8940   -0.4845    1.5873 H   0  0  0  0  0  0  0  0  0  0  0  0
   -1.4472    1.2556    1.5056 H   0  0  0  0  0  0  0  0  0  0  0  0
   -3.9019    0.9375    1.7731 H   0  0  0  0  0  0  0  0  0  0  0  0
   -3.4853    1.8091    0.2569 H   0  0  0  0  0  0  0  0  0  0  0  0
   -5.2282    0.1131   -0.1950 H   0  0  0  0  0  0  0  0  0  0  0  0
   -4.2200   -1.1836    0.5384 H   0  0  0  0  0  0  0  0  0  0  0  0
   -4.0510   -1.2711   -1.9300 H   0  0  0  0  0  0  0  0  0  0  0  0
   -3.5727    0.4609   -2.0028 H   0  0  0  0  0  0  0  0  0  0  0  0
   -1.5846   -0.9867   -2.2157 H   0  0  0  0  0  0  0  0  0  0  0  0
   -1.9944   -1.8543   -0.6943 H   0  0  0  0  0  0  0  0  0  0  0  0
  1  2  1  0
  2  3  2  0
  3  4  1  0
  4  5  2  0
  5  6  1  0
  6  7  2  0
  7  8  1  0
  8  9  1  0
  9 10  1  0
 10 11  1  0
 11 12  1  0
 12 13  1  0
 13 14  1  0
 14 15  1  0
  7  2  1  0
 15 10  1  0
  3 16  1  0
  4 17  1  0
  5 18  1  0
  6 19  1  0
  8 20  1  0
  8 21  1  0
  9 22  1  0
  9 23  1  0
 10 24  1  0
 11 25  1  0
 11 26  1  0
 12 27  1  0
 12 28  1  0
 13 29  1  0
 13 30  1  0
 14 31  1  0
 14 32  1  0
 15 33  1  0
 15 34  1  0
M  RAD  1   1   3
M  END
$$$$
