
     RDKit          3D

 34 35  0  0  0  0  0  0  0  0999 V2000
    2.4292   -0.6156    2.5042 N   0  0  0  0  0  1  0  0  0  0  0  0
    3.1582   -0.1564    1.3678 C   0  0  0  0  0  0  0  0  0  0  0  0
    4.4446    0.3663    1.5479 C   0  0  0  0  0  0  0  0  0  0  0  0
    5.1734    0.8363    0.4528 C   0  0  0  0  0  0  0  0  0  0  0  0
    4.6187    0.7907   -0.8276 C   0  0  0  0  0  0  0  0  0  0  0  0
    3.3355    0.2706   -1.0174 C   0  0  0  0  0  0  0  0  0  0  0  0
    2.5970   -0.2195    0.0740 C   0  0  0  0  0  0  0  0  0  0  0  0
    1.2001   -0.7462   -0.1498 C   0  0  0  0  0  0  0  0  0  0  0  0
    0.1639    0.3687    0.0599 C   0  0  0  0  0  0  0  0  0  0  0  0
   -1.2726   -0.0688   -0.3061 C   0  0  0  0  0  0  0  0  0  0  0  0
   -2.1965    1.1671   -0.3564 C   0  0  0  0  0  0  0  0  0  0  0  0
   -3.6393    0.7739   -0.6949 C   0  0  0  0  0  0  0  0  0  0  0  0
   -4.1774   -0.2501    0.3089 C   0  0  0  0  0  0  0  0  0  0  0  0
   -3.2758   -1.4875    0.3604 C   0  0  0  0  0  0  0  0  0  0  0  0
   -1.8288   -1.1052    0.6974 C   0  0  0  0  0  0  0  0  0  0  0  0
    4.8792    0.4121    2.5387 H   0  0  0  0  0  0  0  0  0  0  0  0
    6.1669    1.2407    0.5976 H   0  0  0  0  0  0  0  0  0  0  0  0
    5.1821    1.1620   -1.6739 H   0  0  0  0  0  0  0  0  0  0  0  0
    2.9165    0.2515   -2.0160 H   0  0  0  0  0  0  0  0  0  0  0  0
    1.0096   -1.5905    0.5445 H   0  0  0  0  0  0  0  0  0  0  0  0
    1.1114   -1.1495   -1.1825 H   0  0  0  0  0  0  0  0  0  0  0  0
    0.1952    0.7153    1.1166 H   0  0  0  0  0  0  0  0  0  0  0  0
    0.4503    1.2302   -0.5842 H   0  0  0  0  0  0  0  0  0  0  0  0
   -1.2551   -0.5267   -1.3212 H   0  0  0  0  0  0  0  0  0  0  0  0
   -2.1799    1.6945    0.6234 H   0  0  0  0  0  0  0  0  0  0  0  0
   -1.8325    1.8759   -1.1321 H   0  0  0  0  0  0  0  0  0  0  0  0
   -3.6807    0.3496   -1.7223 H   0  0  0  0  0  0  0  0  0  0  0  0
   -4.2814    1.6807   -0.6729 H   0  0  0  0  0  0  0  0  0  0  0  0
   -5.2027   -0.5552    0.0081 H   0  0  0  0  0  0  0  0  0  0  0  0
   -4.2387    0.2112    1.3192 H   0  0  0  0  0  0  0  0  0  0  0  0
   -3.6596   -2.1877    1.1334 H   0  0  0  0  0  0  0  0  0  0  0  0
   -3.3047   -2.0117   -0.6203 H   0  0  0  0  0  0  0  0  0  0  0  0
   -1.7876   -0.6953    1.7310 H   0  0  0  0  0  0  0  0  0  0  0  0
   -1.2184   -2.0315    0.6705 H   0  0  0  0  0  0  0  0  0  0  0  0
  1  2  1  0
  2  3  2  0
  3  4  1  0
  4  5  2  0
  5  6  1  0
  6  7  2  0
  7  8  1  0
  8  9  1  0
  9 10  1  0
 10 11  1  0
 11 12  1  0
 12 13  1  0
 13 14  1  0
 14 15  1  0
  7  2  1  0
 15 10  1  0
  3 16  1  0
  4 17  1  0
  5 18  1  0
  6 19  1  0
  8 20  1  0
  8 21  1  0
  9 22  1  0
  9 23  1  0
 10 24  1  0
 11 25  1  0
 11 26  1  0
 12 27  1  0
 12 28  1  0
 13 29  1  0
 13 30  1  0
 14 31  1  0
 14 32  1  0
 15 33  1  0
 15 34  1  0
M  RAD  1   1   3
M  END
$$$$
