
     RDKit          3D

 34 35  0  0  0  0  0  0  0  0999 V2000
    2.2257   -0.8522    2.5745 N   0  0  0  0  0  1  0  0  0  0  0  0
    3.0522   -0.3759    1.5144 C   0  0  0  0  0  0  0  0  0  0  0  0
    4.4015   -0.7484    1.4811 C   0  0  0  0  0  0  0  0  0  0  0  0
    5.2284   -0.3072    0.4453 C   0  0  0  0  0  0  0  0  0  0  0  0
    4.7102    0.5049   -0.5653 C   0  0  0  0  0  0  0  0  0  0  0  0
    3.3648    0.8821   -0.5405 C   0  0  0  0  0  0  0  0  0  0  0  0
    2.5251    0.4573    0.5042 C   0  0  0  0  0  0  0  0  0  0  0  0
    1.0674    0.8496    0.4928 C   0  0  0  0  0  0  0  0  0  0  0  0
    0.2234   -0.2330   -0.1973 C   0  0  0  0  0  0  0  0  0  0  0  0
   -1.2546    0.1812   -0.3785 C   0  0  0  0  0  0  0  0  0  0  0  0
   -1.9605   -0.8103   -1.3283 C   0  0  0  0  0  0  0  0  0  0  0  0
   -3.4382   -0.4479   -1.5181 C   0  0  0  0  0  0  0  0  0  0  0  0
   -4.1658   -0.3939   -0.1713 C   0  0  0  0  0  0  0  0  0  0  0  0
   -3.4821    0.5954    0.7775 C   0  0  0  0  0  0  0  0  0  0  0  0
   -2.0020    0.2426    0.9735 C   0  0  0  0  0  0  0  0  0  0  0  0
    4.8095   -1.3841    2.2570 H   0  0  0  0  0  0  0  0  0  0  0  0
    6.2704   -0.5991    0.4234 H   0  0  0  0  0  0  0  0  0  0  0  0
    5.3507    0.8398   -1.3709 H   0  0  0  0  0  0  0  0  0  0  0  0
    2.9767    1.5045   -1.3375 H   0  0  0  0  0  0  0  0  0  0  0  0
    0.7209    1.0081    1.5349 H   0  0  0  0  0  0  0  0  0  0  0  0
    0.9427    1.8174   -0.0410 H   0  0  0  0  0  0  0  0  0  0  0  0
    0.2815   -1.1801    0.3836 H   0  0  0  0  0  0  0  0  0  0  0  0
    0.6658   -0.4271   -1.2001 H   0  0  0  0  0  0  0  0  0  0  0  0
   -1.2839    1.1896   -0.8503 H   0  0  0  0  0  0  0  0  0  0  0  0
   -1.4630   -0.7957   -2.3227 H   0  0  0  0  0  0  0  0  0  0  0  0
   -1.8851   -1.8442   -0.9234 H   0  0  0  0  0  0  0  0  0  0  0  0
   -3.5198    0.5371   -2.0282 H   0  0  0  0  0  0  0  0  0  0  0  0
   -3.9226   -1.2101   -2.1657 H   0  0  0  0  0  0  0  0  0  0  0  0
   -4.1789   -1.4065    0.2889 H   0  0  0  0  0  0  0  0  0  0  0  0
   -5.2184   -0.0778   -0.3352 H   0  0  0  0  0  0  0  0  0  0  0  0
   -3.5692    1.6261    0.3683 H   0  0  0  0  0  0  0  0  0  0  0  0
   -3.9977    0.5740    1.7617 H   0  0  0  0  0  0  0  0  0  0  0  0
   -1.5520    1.0193    1.6260 H   0  0  0  0  0  0  0  0  0  0  0  0
   -1.9232   -0.7357    1.4977 H   0  0  0  0  0  0  0  0  0  0  0  0
  1  2  1  0
  2  3  2  0
  3  4  1  0
  4  5  2  0
  5  6  1  0
  6  7  2  0
  7  8  1  0
  8  9  1  0
  9 10  1  0
 10 11  1  0
 11 12  1  0
 12 13  1  0
 13 14  1  0
 14 15  1  0
  7  2  1  0
 15 10  1  0
  3 16  1  0
  4 17  1  0
  5 18  1  0
  6 19  1  0
  8 20  1  0
  8 21  1  0
  9 22  1  0
  9 23  1  0
 10 24  1  0
 11 25  1  0
 11 26  1  0
 12 27  1  0
 12 28  1  0
 13 29  1  0
 13 30  1  0
 14 31  1  0
 14 32  1  0
 15 33  1  0
 15 34  1  0
M  RAD  1   1   3
M  END
$$$$
