
     RDKit          3D

 34 35  0  0  0  0  0  0  0  0999 V2000
   -1.2775    0.7541   -2.4556 N   0  0  0  0  0  1  0  0  0  0  0  0
   -2.0444    0.4553   -1.2913 C   0  0  0  0  0  0  0  0  0  0  0  0
   -2.9830    1.3911   -0.8401 C   0  0  0  0  0  0  0  0  0  0  0  0
   -3.7443    1.1323    0.3015 C   0  0  0  0  0  0  0  0  0  0  0  0
   -3.5759   -0.0659    0.9966 C   0  0  0  0  0  0  0  0  0  0  0  0
   -2.6422   -1.0067    0.5555 C   0  0  0  0  0  0  0  0  0  0  0  0
   -1.8563   -0.7542   -0.5838 C   0  0  0  0  0  0  0  0  0  0  0  0
   -0.8544   -1.7920   -1.0365 C   0  0  0  0  0  0  0  0  0  0  0  0
    0.2910   -2.0404   -0.0300 C   0  0  0  0  0  0  0  0  0  0  0  0
    1.2876   -0.8815    0.2380 C   0  0  0  0  0  0  0  0  0  0  0  0
    0.6867    0.2900    1.0378 C   0  0  0  0  0  0  0  0  0  0  0  0
    1.7910    1.2391    1.5483 C   0  0  0  0  0  0  0  0  0  0  0  0
    3.0270    1.2968    0.6247 C   0  0  0  0  0  0  0  0  0  0  0  0
    2.6621    1.0195   -0.8391 C   0  0  0  0  0  0  0  0  0  0  0  0
    2.0255   -0.3751   -1.0282 C   0  0  0  0  0  0  0  0  0  0  0  0
   -3.1224    2.3223   -1.3749 H   0  0  0  0  0  0  0  0  0  0  0  0
   -4.4681    1.8599    0.6454 H   0  0  0  0  0  0  0  0  0  0  0  0
   -4.1713   -0.2675    1.8778 H   0  0  0  0  0  0  0  0  0  0  0  0
   -2.5318   -1.9340    1.1035 H   0  0  0  0  0  0  0  0  0  0  0  0
   -1.4042   -2.7504   -1.1601 H   0  0  0  0  0  0  0  0  0  0  0  0
   -0.4489   -1.5712   -2.0428 H   0  0  0  0  0  0  0  0  0  0  0  0
   -0.1392   -2.3746    0.9388 H   0  0  0  0  0  0  0  0  0  0  0  0
    0.8790   -2.9039   -0.4116 H   0  0  0  0  0  0  0  0  0  0  0  0
    2.0661   -1.3296    0.8979 H   0  0  0  0  0  0  0  0  0  0  0  0
    0.0071    0.8774    0.3898 H   0  0  0  0  0  0  0  0  0  0  0  0
    0.0991   -0.0885    1.9023 H   0  0  0  0  0  0  0  0  0  0  0  0
    1.3626    2.2596    1.6555 H   0  0  0  0  0  0  0  0  0  0  0  0
    2.1186    0.9121    2.5592 H   0  0  0  0  0  0  0  0  0  0  0  0
    3.5036    2.2976    0.7056 H   0  0  0  0  0  0  0  0  0  0  0  0
    3.7749    0.5435    0.9569 H   0  0  0  0  0  0  0  0  0  0  0  0
    1.9480    1.8011   -1.1815 H   0  0  0  0  0  0  0  0  0  0  0  0
    3.5730    1.1003   -1.4708 H   0  0  0  0  0  0  0  0  0  0  0  0
    2.8192   -1.1076   -1.2928 H   0  0  0  0  0  0  0  0  0  0  0  0
    1.3419   -0.3089   -1.8961 H   0  0  0  0  0  0  0  0  0  0  0  0
  1  2  1  0
  2  3  2  0
  3  4  1  0
  4  5  2  0
  5  6  1  0
  6  7  2  0
  7  8  1  0
  8  9  1  0
  9 10  1  0
 10 11  1  0
 11 12  1  0
 12 13  1  0
 13 14  1  0
 14 15  1  0
  7  2  1  0
 15 10  1  0
  3 16  1  0
  4 17  1  0
  5 18  1  0
  6 19  1  0
  8 20  1  0
  8 21  1  0
  9 22  1  0
  9 23  1  0
 10 24  1  0
 11 25  1  0
 11 26  1  0
 12 27  1  0
 12 28  1  0
 13 29  1  0
 13 30  1  0
 14 31  1  0
 14 32  1  0
 15 33  1  0
 15 34  1  0
M  RAD  1   1   3
M  END
$$$$
