
     RDKit          3D

 24 24  0  0  0  0  0  0  0  0999 V2000
    3.0810    0.0066   -1.9480 C   0  0  0  0  0  0  0  0  0  0  0  0
    2.5004    0.7875   -0.9108 O   0  0  0  0  0  0  0  0  0  0  0  0
    1.9402    0.2173    0.2358 C   0  0  0  0  0  0  0  0  0  0  0  0
    1.9342   -1.0341    0.3955 O   0  0  0  0  0  0  0  0  0  0  0  0
    1.3031    1.1019    1.2623 C   0  0  0  0  0  0  0  0  0  0  0  0
   -0.0850    1.5770    0.8154 C   0  0  0  0  0  0  0  0  0  0  0  0
   -1.0709    0.4333    0.7315 C   0  0  0  0  0  0  0  0  0  0  0  0
   -1.6790   -0.0364    1.9089 C   0  0  0  0  0  0  0  0  0  0  0  0
   -2.5718   -1.1104    1.8657 C   0  0  0  0  0  0  0  0  0  0  0  0
   -2.8623   -1.7307    0.6493 C   0  0  0  0  0  0  0  0  0  0  0  0
   -2.2590   -1.2800   -0.5270 C   0  0  0  0  0  0  0  0  0  0  0  0
   -1.3632   -0.2045   -0.4944 C   0  0  0  0  0  0  0  0  0  0  0  0
   -0.7563    0.2285   -1.7100 N   0  0  0  0  0  1  0  0  0  0  0  0
    3.9323   -0.5840   -1.5482 H   0  0  0  0  0  0  0  0  0  0  0  0
    3.4537    0.6804   -2.7464 H   0  0  0  0  0  0  0  0  0  0  0  0
    2.3196   -0.6769   -2.3801 H   0  0  0  0  0  0  0  0  0  0  0  0
    1.2285    0.5674    2.2349 H   0  0  0  0  0  0  0  0  0  0  0  0
    1.9540    1.9886    1.4180 H   0  0  0  0  0  0  0  0  0  0  0  0
   -0.0070    2.1137   -0.1548 H   0  0  0  0  0  0  0  0  0  0  0  0
   -0.4571    2.3226    1.5515 H   0  0  0  0  0  0  0  0  0  0  0  0
   -1.4587    0.4291    2.8617 H   0  0  0  0  0  0  0  0  0  0  0  0
   -3.0368   -1.4638    2.7770 H   0  0  0  0  0  0  0  0  0  0  0  0
   -3.5533   -2.5632    0.6183 H   0  0  0  0  0  0  0  0  0  0  0  0
   -2.4867   -1.7697   -1.4657 H   0  0  0  0  0  0  0  0  0  0  0  0
  1  2  1  0
  2  3  1  0
  3  4  2  0
  3  5  1  0
  5  6  1  0
  6  7  1  0
  7  8  2  0
  8  9  1  0
  9 10  2  0
 10 11  1  0
 11 12  2  0
 12 13  1  0
 12  7  1  0
  1 14  1  0
  1 15  1  0
  1 16  1  0
  5 17  1  0
  5 18  1  0
  6 19  1  0
  6 20  1  0
  8 21  1  0
  9 22  1  0
 10 23  1  0
 11 24  1  0
M  RAD  1  13   3
M  END
$$$$
