
     RDKit          3D

 24 24  0  0  0  0  0  0  0  0999 V2000
    2.4376    1.3265    1.3678 C   0  0  0  0  0  0  0  0  0  0  0  0
    1.9592    0.3389    0.4635 O   0  0  0  0  0  0  0  0  0  0  0  0
    1.6725   -0.9701    0.8611 C   0  0  0  0  0  0  0  0  0  0  0  0
    1.8546   -1.3356    2.0546 O   0  0  0  0  0  0  0  0  0  0  0  0
    1.0902   -1.9294   -0.1306 C   0  0  0  0  0  0  0  0  0  0  0  0
   -0.4430   -1.9308   -0.0779 C   0  0  0  0  0  0  0  0  0  0  0  0
   -1.0223   -0.6042   -0.5146 C   0  0  0  0  0  0  0  0  0  0  0  0
   -1.3715    0.3530    0.4547 C   0  0  0  0  0  0  0  0  0  0  0  0
   -1.8727    1.5994    0.0706 C   0  0  0  0  0  0  0  0  0  0  0  0
   -2.0270    1.9051   -1.2828 C   0  0  0  0  0  0  0  0  0  0  0  0
   -1.6773    0.9662   -2.2562 C   0  0  0  0  0  0  0  0  0  0  0  0
   -1.1724   -0.2847   -1.8812 C   0  0  0  0  0  0  0  0  0  0  0  0
   -0.8126   -1.2214   -2.8944 N   0  0  0  0  0  1  0  0  0  0  0  0
    3.4060    1.0045    1.8059 H   0  0  0  0  0  0  0  0  0  0  0  0
    1.6947    1.4911    2.1769 H   0  0  0  0  0  0  0  0  0  0  0  0
    2.5889    2.2791    0.8201 H   0  0  0  0  0  0  0  0  0  0  0  0
    1.4372   -1.6640   -1.1525 H   0  0  0  0  0  0  0  0  0  0  0  0
    1.4609   -2.9532    0.0926 H   0  0  0  0  0  0  0  0  0  0  0  0
   -0.7800   -2.1822    0.9522 H   0  0  0  0  0  0  0  0  0  0  0  0
   -0.8263   -2.7397   -0.7365 H   0  0  0  0  0  0  0  0  0  0  0  0
   -1.2480    0.1366    1.5087 H   0  0  0  0  0  0  0  0  0  0  0  0
   -2.1384    2.3303    0.8233 H   0  0  0  0  0  0  0  0  0  0  0  0
   -2.4146    2.8715   -1.5781 H   0  0  0  0  0  0  0  0  0  0  0  0
   -1.7957    1.2130   -3.3039 H   0  0  0  0  0  0  0  0  0  0  0  0
  1  2  1  0
  2  3  1  0
  3  4  2  0
  3  5  1  0
  5  6  1  0
  6  7  1  0
  7  8  2  0
  8  9  1  0
  9 10  2  0
 10 11  1  0
 11 12  2  0
 12 13  1  0
 12  7  1  0
  1 14  1  0
  1 15  1  0
  1 16  1  0
  5 17  1  0
  5 18  1  0
  6 19  1  0
  6 20  1  0
  8 21  1  0
  9 22  1  0
 10 23  1  0
 11 24  1  0
M  RAD  1  13   3
M  END
$$$$
