
     RDKit          3D

 24 24  0  0  0  0  0  0  0  0999 V2000
    3.6217    1.0073    0.3596 C   0  0  0  0  0  0  0  0  0  0  0  0
    2.8515   -0.1679    0.1395 O   0  0  0  0  0  0  0  0  0  0  0  0
    1.7683   -0.2024   -0.7431 C   0  0  0  0  0  0  0  0  0  0  0  0
    1.4325    0.8265   -1.3910 O   0  0  0  0  0  0  0  0  0  0  0  0
    0.9742   -1.4639   -0.8855 C   0  0  0  0  0  0  0  0  0  0  0  0
    0.0212   -1.6682    0.2988 C   0  0  0  0  0  0  0  0  0  0  0  0
   -1.0647   -0.6163    0.3348 C   0  0  0  0  0  0  0  0  0  0  0  0
   -2.1818   -0.7539   -0.5079 C   0  0  0  0  0  0  0  0  0  0  0  0
   -3.1866    0.2170   -0.5171 C   0  0  0  0  0  0  0  0  0  0  0  0
   -3.0847    1.3377    0.3090 C   0  0  0  0  0  0  0  0  0  0  0  0
   -1.9764    1.4916    1.1450 C   0  0  0  0  0  0  0  0  0  0  0  0
   -0.9643    0.5243    1.1618 C   0  0  0  0  0  0  0  0  0  0  0  0
    0.1593    0.7123    2.0195 N   0  0  0  0  0  1  0  0  0  0  0  0
    4.4194    0.7873    1.0983 H   0  0  0  0  0  0  0  0  0  0  0  0
    4.0918    1.3375   -0.5909 H   0  0  0  0  0  0  0  0  0  0  0  0
    2.9741    1.8163    0.7593 H   0  0  0  0  0  0  0  0  0  0  0  0
    1.6786   -2.3218   -0.9325 H   0  0  0  0  0  0  0  0  0  0  0  0
    0.4009   -1.4498   -1.8384 H   0  0  0  0  0  0  0  0  0  0  0  0
   -0.4492   -2.6713    0.2047 H   0  0  0  0  0  0  0  0  0  0  0  0
    0.5971   -1.6855    1.2493 H   0  0  0  0  0  0  0  0  0  0  0  0
   -2.2723   -1.6138   -1.1603 H   0  0  0  0  0  0  0  0  0  0  0  0
   -4.0439    0.1015   -1.1677 H   0  0  0  0  0  0  0  0  0  0  0  0
   -3.8636    2.0892    0.2994 H   0  0  0  0  0  0  0  0  0  0  0  0
   -1.9032    2.3662    1.7794 H   0  0  0  0  0  0  0  0  0  0  0  0
  1  2  1  0
  2  3  1  0
  3  4  2  0
  3  5  1  0
  5  6  1  0
  6  7  1  0
  7  8  2  0
  8  9  1  0
  9 10  2  0
 10 11  1  0
 11 12  2  0
 12 13  1  0
 12  7  1  0
  1 14  1  0
  1 15  1  0
  1 16  1  0
  5 17  1  0
  5 18  1  0
  6 19  1  0
  6 20  1  0
  8 21  1  0
  9 22  1  0
 10 23  1  0
 11 24  1  0
M  RAD  1  13   3
M  END
$$$$
