
     RDKit          3D

 24 24  0  0  0  0  0  0  0  0999 V2000
    3.3865    1.6342    0.3404 C   0  0  0  0  0  0  0  0  0  0  0  0
    2.8361    0.3374    0.1453 O   0  0  0  0  0  0  0  0  0  0  0  0
    1.7566   -0.1413    0.8930 C   0  0  0  0  0  0  0  0  0  0  0  0
    1.2256    0.5726    1.7873 O   0  0  0  0  0  0  0  0  0  0  0  0
    1.2001   -1.4996    0.5967 C   0  0  0  0  0  0  0  0  0  0  0  0
    0.3275   -1.4896   -0.6646 C   0  0  0  0  0  0  0  0  0  0  0  0
   -0.9293   -0.6707   -0.4726 C   0  0  0  0  0  0  0  0  0  0  0  0
   -2.0225   -1.2396    0.2042 C   0  0  0  0  0  0  0  0  0  0  0  0
   -3.1860   -0.4970    0.4216 C   0  0  0  0  0  0  0  0  0  0  0  0
   -3.2687    0.8220   -0.0279 C   0  0  0  0  0  0  0  0  0  0  0  0
   -2.1873    1.4028   -0.6942 C   0  0  0  0  0  0  0  0  0  0  0  0
   -1.0171    0.6671   -0.9172 C   0  0  0  0  0  0  0  0  0  0  0  0
    0.0738    1.2890   -1.5930 N   0  0  0  0  0  1  0  0  0  0  0  0
    3.7670    1.7336    1.3790 H   0  0  0  0  0  0  0  0  0  0  0  0
    2.6130    2.4078    0.1480 H   0  0  0  0  0  0  0  0  0  0  0  0
    4.2278    1.7833   -0.3670 H   0  0  0  0  0  0  0  0  0  0  0  0
    2.0464   -2.2027    0.4431 H   0  0  0  0  0  0  0  0  0  0  0  0
    0.6116   -1.8697    1.4648 H   0  0  0  0  0  0  0  0  0  0  0  0
    0.9190   -1.1227   -1.5311 H   0  0  0  0  0  0  0  0  0  0  0  0
    0.0438   -2.5373   -0.9061 H   0  0  0  0  0  0  0  0  0  0  0  0
   -1.9716   -2.2594    0.5657 H   0  0  0  0  0  0  0  0  0  0  0  0
   -4.0233   -0.9441    0.9417 H   0  0  0  0  0  0  0  0  0  0  0  0
   -4.1705    1.3958    0.1426 H   0  0  0  0  0  0  0  0  0  0  0  0
   -2.2583    2.4280   -1.0357 H   0  0  0  0  0  0  0  0  0  0  0  0
  1  2  1  0
  2  3  1  0
  3  4  2  0
  3  5  1  0
  5  6  1  0
  6  7  1  0
  7  8  2  0
  8  9  1  0
  9 10  2  0
 10 11  1  0
 11 12  2  0
 12 13  1  0
 12  7  1  0
  1 14  1  0
  1 15  1  0
  1 16  1  0
  5 17  1  0
  5 18  1  0
  6 19  1  0
  6 20  1  0
  8 21  1  0
  9 22  1  0
 10 23  1  0
 11 24  1  0
M  RAD  1  13   3
M  END
$$$$
