
     RDKit          3D

 24 24  0  0  0  0  0  0  0  0999 V2000
   -2.8462    1.2740    0.5308 C   0  0  0  0  0  0  0  0  0  0  0  0
   -1.9896    0.4090   -0.2041 O   0  0  0  0  0  0  0  0  0  0  0  0
   -1.9246   -0.9668    0.0342 C   0  0  0  0  0  0  0  0  0  0  0  0
   -2.6558   -1.5042    0.9104 O   0  0  0  0  0  0  0  0  0  0  0  0
   -0.9350   -1.7985   -0.7218 C   0  0  0  0  0  0  0  0  0  0  0  0
    0.3849   -1.9392    0.0472 C   0  0  0  0  0  0  0  0  0  0  0  0
    1.0986   -0.6136    0.1872 C   0  0  0  0  0  0  0  0  0  0  0  0
    0.9370    0.1405    1.3632 C   0  0  0  0  0  0  0  0  0  0  0  0
    1.5572    1.3854    1.4971 C   0  0  0  0  0  0  0  0  0  0  0  0
    2.3409    1.8923    0.4588 C   0  0  0  0  0  0  0  0  0  0  0  0
    2.5039    1.1570   -0.7176 C   0  0  0  0  0  0  0  0  0  0  0  0
    1.8848   -0.0906   -0.8618 C   0  0  0  0  0  0  0  0  0  0  0  0
    2.0582   -0.8164   -2.0769 N   0  0  0  0  0  1  0  0  0  0  0  0
   -2.7191    2.3122    0.1616 H   0  0  0  0  0  0  0  0  0  0  0  0
   -2.5830    1.2412    1.6094 H   0  0  0  0  0  0  0  0  0  0  0  0
   -3.9050    0.9688    0.3923 H   0  0  0  0  0  0  0  0  0  0  0  0
   -1.3642   -2.8096   -0.8919 H   0  0  0  0  0  0  0  0  0  0  0  0
   -0.7501   -1.3423   -1.7181 H   0  0  0  0  0  0  0  0  0  0  0  0
    0.1873   -2.3821    1.0485 H   0  0  0  0  0  0  0  0  0  0  0  0
    1.0397   -2.6602   -0.4879 H   0  0  0  0  0  0  0  0  0  0  0  0
    0.3238   -0.2327    2.1742 H   0  0  0  0  0  0  0  0  0  0  0  0
    1.4270    1.9591    2.4055 H   0  0  0  0  0  0  0  0  0  0  0  0
    2.8196    2.8572    0.5643 H   0  0  0  0  0  0  0  0  0  0  0  0
    3.1096    1.5595   -1.5199 H   0  0  0  0  0  0  0  0  0  0  0  0
  1  2  1  0
  2  3  1  0
  3  4  2  0
  3  5  1  0
  5  6  1  0
  6  7  1  0
  7  8  2  0
  8  9  1  0
  9 10  2  0
 10 11  1  0
 11 12  2  0
 12 13  1  0
 12  7  1  0
  1 14  1  0
  1 15  1  0
  1 16  1  0
  5 17  1  0
  5 18  1  0
  6 19  1  0
  6 20  1  0
  8 21  1  0
  9 22  1  0
 10 23  1  0
 11 24  1  0
M  RAD  1  13   3
M  END
$$$$
