
     RDKit          3D

 24 24  0  0  0  0  0  0  0  0999 V2000
    3.6662    0.7807    0.4525 C   0  0  0  0  0  0  0  0  0  0  0  0
    2.8429   -0.2866   -0.0010 O   0  0  0  0  0  0  0  0  0  0  0  0
    1.7424   -0.0837   -0.8383 C   0  0  0  0  0  0  0  0  0  0  0  0
    1.4379    1.0755   -1.2320 O   0  0  0  0  0  0  0  0  0  0  0  0
    0.8930   -1.2515   -1.2345 C   0  0  0  0  0  0  0  0  0  0  0  0
   -0.0447   -1.6792   -0.0986 C   0  0  0  0  0  0  0  0  0  0  0  0
   -1.0843   -0.6225    0.2005 C   0  0  0  0  0  0  0  0  0  0  0  0
   -2.2222   -0.5275   -0.6198 C   0  0  0  0  0  0  0  0  0  0  0  0
   -3.1851    0.4574   -0.3850 C   0  0  0  0  0  0  0  0  0  0  0  0
   -3.0200    1.3613    0.6659 C   0  0  0  0  0  0  0  0  0  0  0  0
   -1.8903    1.2841    1.4836 C   0  0  0  0  0  0  0  0  0  0  0  0
   -0.9198    0.3007    1.2568 C   0  0  0  0  0  0  0  0  0  0  0  0
    0.2271    0.2513    2.1027 N   0  0  0  0  0  1  0  0  0  0  0  0
    3.0612    1.5037    1.0399 H   0  0  0  0  0  0  0  0  0  0  0  0
    4.4680    0.3724    1.1012 H   0  0  0  0  0  0  0  0  0  0  0  0
    4.1314    1.2968   -0.4139 H   0  0  0  0  0  0  0  0  0  0  0  0
    1.5595   -2.1027   -1.4906 H   0  0  0  0  0  0  0  0  0  0  0  0
    0.3025   -1.0042   -2.1440 H   0  0  0  0  0  0  0  0  0  0  0  0
    0.5482   -1.9291    0.8077 H   0  0  0  0  0  0  0  0  0  0  0  0
   -0.5587   -2.6181   -0.3996 H   0  0  0  0  0  0  0  0  0  0  0  0
   -2.3616   -1.2165   -1.4439 H   0  0  0  0  0  0  0  0  0  0  0  0
   -4.0590    0.5215   -1.0205 H   0  0  0  0  0  0  0  0  0  0  0  0
   -3.7665    2.1242    0.8453 H   0  0  0  0  0  0  0  0  0  0  0  0
   -1.7679    1.9920    2.2939 H   0  0  0  0  0  0  0  0  0  0  0  0
  1  2  1  0
  2  3  1  0
  3  4  2  0
  3  5  1  0
  5  6  1  0
  6  7  1  0
  7  8  2  0
  8  9  1  0
  9 10  2  0
 10 11  1  0
 11 12  2  0
 12 13  1  0
 12  7  1  0
  1 14  1  0
  1 15  1  0
  1 16  1  0
  5 17  1  0
  5 18  1  0
  6 19  1  0
  6 20  1  0
  8 21  1  0
  9 22  1  0
 10 23  1  0
 11 24  1  0
M  RAD  1  13   3
M  END
$$$$
