
     RDKit          3D

 24 24  0  0  0  0  0  0  0  0999 V2000
    2.4607    1.6624   -0.9757 C   0  0  0  0  0  0  0  0  0  0  0  0
    1.9705    0.5682   -0.2113 O   0  0  0  0  0  0  0  0  0  0  0  0
    1.8821   -0.7290   -0.7245 C   0  0  0  0  0  0  0  0  0  0  0  0
    2.2643   -0.9847   -1.8991 O   0  0  0  0  0  0  0  0  0  0  0  0
    1.2745   -1.8117    0.1129 C   0  0  0  0  0  0  0  0  0  0  0  0
   -0.2279   -1.9577   -0.1605 C   0  0  0  0  0  0  0  0  0  0  0  0
   -0.9996   -0.7299    0.2675 C   0  0  0  0  0  0  0  0  0  0  0  0
   -1.3122    0.2590   -0.6824 C   0  0  0  0  0  0  0  0  0  0  0  0
   -1.9913    1.4187   -0.3000 C   0  0  0  0  0  0  0  0  0  0  0  0
   -2.3616    1.6057    1.0330 C   0  0  0  0  0  0  0  0  0  0  0  0
   -2.0510    0.6348    1.9880 C   0  0  0  0  0  0  0  0  0  0  0  0
   -1.3691   -0.5297    1.6148 C   0  0  0  0  0  0  0  0  0  0  0  0
   -1.0544   -1.5004    2.6109 N   0  0  0  0  0  1  0  0  0  0  0  0
    2.4330    2.5815   -0.3552 H   0  0  0  0  0  0  0  0  0  0  0  0
    1.8227    1.8145   -1.8721 H   0  0  0  0  0  0  0  0  0  0  0  0
    3.5088    1.4694   -1.2881 H   0  0  0  0  0  0  0  0  0  0  0  0
    1.4476   -1.5913    1.1883 H   0  0  0  0  0  0  0  0  0  0  0  0
    1.7793   -2.7752   -0.1159 H   0  0  0  0  0  0  0  0  0  0  0  0
   -0.3915   -2.1626   -1.2418 H   0  0  0  0  0  0  0  0  0  0  0  0
   -0.6098   -2.8469    0.3857 H   0  0  0  0  0  0  0  0  0  0  0  0
   -1.0228    0.1352   -1.7187 H   0  0  0  0  0  0  0  0  0  0  0  0
   -2.2274    2.1748   -1.0376 H   0  0  0  0  0  0  0  0  0  0  0  0
   -2.8868    2.5052    1.3272 H   0  0  0  0  0  0  0  0  0  0  0  0
   -2.3378    0.7898    3.0207 H   0  0  0  0  0  0  0  0  0  0  0  0
  1  2  1  0
  2  3  1  0
  3  4  2  0
  3  5  1  0
  5  6  1  0
  6  7  1  0
  7  8  2  0
  8  9  1  0
  9 10  2  0
 10 11  1  0
 11 12  2  0
 12 13  1  0
 12  7  1  0
  1 14  1  0
  1 15  1  0
  1 16  1  0
  5 17  1  0
  5 18  1  0
  6 19  1  0
  6 20  1  0
  8 21  1  0
  9 22  1  0
 10 23  1  0
 11 24  1  0
M  RAD  1  13   3
M  END
$$$$
