
     RDKit          3D

 24 24  0  0  0  0  0  0  0  0999 V2000
    2.8156    1.3850    0.2209 C   0  0  0  0  0  0  0  0  0  0  0  0
    2.0535    0.1861    0.2823 O   0  0  0  0  0  0  0  0  0  0  0  0
    1.8175   -0.6143   -0.8391 C   0  0  0  0  0  0  0  0  0  0  0  0
    2.3022   -0.3081   -1.9628 O   0  0  0  0  0  0  0  0  0  0  0  0
    0.9330   -1.8161   -0.7124 C   0  0  0  0  0  0  0  0  0  0  0  0
   -0.5237   -1.4810   -1.0574 C   0  0  0  0  0  0  0  0  0  0  0  0
   -1.1286   -0.5133   -0.0655 C   0  0  0  0  0  0  0  0  0  0  0  0
   -1.1443    0.8619   -0.3592 C   0  0  0  0  0  0  0  0  0  0  0  0
   -1.6640    1.7765    0.5604 C   0  0  0  0  0  0  0  0  0  0  0  0
   -2.1694    1.3298    1.7827 C   0  0  0  0  0  0  0  0  0  0  0  0
   -2.1534   -0.0327    2.0902 C   0  0  0  0  0  0  0  0  0  0  0  0
   -1.6328   -0.9566    1.1760 C   0  0  0  0  0  0  0  0  0  0  0  0
   -1.6181   -2.3408    1.5185 N   0  0  0  0  0  1  0  0  0  0  0  0
    2.8609    1.8399    1.2315 H   0  0  0  0  0  0  0  0  0  0  0  0
    3.8484    1.1623   -0.1212 H   0  0  0  0  0  0  0  0  0  0  0  0
    2.3351    2.1041   -0.4759 H   0  0  0  0  0  0  0  0  0  0  0  0
    1.2952   -2.6088   -1.4023 H   0  0  0  0  0  0  0  0  0  0  0  0
    0.9981   -2.2182    0.3216 H   0  0  0  0  0  0  0  0  0  0  0  0
   -1.1171   -2.4205   -1.0708 H   0  0  0  0  0  0  0  0  0  0  0  0
   -0.5761   -1.0650   -2.0880 H   0  0  0  0  0  0  0  0  0  0  0  0
   -0.7463    1.2269   -1.2981 H   0  0  0  0  0  0  0  0  0  0  0  0
   -1.6717    2.8332    0.3262 H   0  0  0  0  0  0  0  0  0  0  0  0
   -2.5708    2.0401    2.4939 H   0  0  0  0  0  0  0  0  0  0  0  0
   -2.5431   -0.3703    3.0424 H   0  0  0  0  0  0  0  0  0  0  0  0
  1  2  1  0
  2  3  1  0
  3  4  2  0
  3  5  1  0
  5  6  1  0
  6  7  1  0
  7  8  2  0
  8  9  1  0
  9 10  2  0
 10 11  1  0
 11 12  2  0
 12 13  1  0
 12  7  1  0
  1 14  1  0
  1 15  1  0
  1 16  1  0
  5 17  1  0
  5 18  1  0
  6 19  1  0
  6 20  1  0
  8 21  1  0
  9 22  1  0
 10 23  1  0
 11 24  1  0
M  RAD  1  13   3
M  END
$$$$
