
     RDKit          3D

 24 24  0  0  0  0  0  0  0  0999 V2000
    2.6796   -0.9378    1.3383 C   0  0  0  0  0  0  0  0  0  0  0  0
    2.0302   -0.2889    0.2524 O   0  0  0  0  0  0  0  0  0  0  0  0
    1.6976   -0.9533   -0.9316 C   0  0  0  0  0  0  0  0  0  0  0  0
    1.9893   -2.1701   -1.0914 O   0  0  0  0  0  0  0  0  0  0  0  0
    0.9372   -0.2241   -1.9959 C   0  0  0  0  0  0  0  0  0  0  0  0
   -0.5757   -0.4291   -1.8464 C   0  0  0  0  0  0  0  0  0  0  0  0
   -1.1044    0.1904   -0.5724 C   0  0  0  0  0  0  0  0  0  0  0  0
   -1.2695   -0.6104    0.5717 C   0  0  0  0  0  0  0  0  0  0  0  0
   -1.7205   -0.0497    1.7695 C   0  0  0  0  0  0  0  0  0  0  0  0
   -2.0074    1.3148    1.8393 C   0  0  0  0  0  0  0  0  0  0  0  0
   -1.8408    2.1231    0.7123 C   0  0  0  0  0  0  0  0  0  0  0  0
   -1.3876    1.5708   -0.4918 C   0  0  0  0  0  0  0  0  0  0  0  0
   -1.2156    2.4194   -1.6247 N   0  0  0  0  0  1  0  0  0  0  0  0
    2.0488   -1.7713    1.7136 H   0  0  0  0  0  0  0  0  0  0  0  0
    2.8350   -0.2075    2.1586 H   0  0  0  0  0  0  0  0  0  0  0  0
    3.6663   -1.3298    1.0124 H   0  0  0  0  0  0  0  0  0  0  0  0
    1.2564   -0.5986   -2.9925 H   0  0  0  0  0  0  0  0  0  0  0  0
    1.1823    0.8590   -1.9520 H   0  0  0  0  0  0  0  0  0  0  0  0
   -0.8090   -1.5166   -1.8760 H   0  0  0  0  0  0  0  0  0  0  0  0
   -1.0898    0.0231   -2.7218 H   0  0  0  0  0  0  0  0  0  0  0  0
   -1.0413   -1.6686    0.5383 H   0  0  0  0  0  0  0  0  0  0  0  0
   -1.8443   -0.6734    2.6453 H   0  0  0  0  0  0  0  0  0  0  0  0
   -2.3558    1.7472    2.7684 H   0  0  0  0  0  0  0  0  0  0  0  0
   -2.0611    3.1814    0.7763 H   0  0  0  0  0  0  0  0  0  0  0  0
  1  2  1  0
  2  3  1  0
  3  4  2  0
  3  5  1  0
  5  6  1  0
  6  7  1  0
  7  8  2  0
  8  9  1  0
  9 10  2  0
 10 11  1  0
 11 12  2  0
 12 13  1  0
 12  7  1  0
  1 14  1  0
  1 15  1  0
  1 16  1  0
  5 17  1  0
  5 18  1  0
  6 19  1  0
  6 20  1  0
  8 21  1  0
  9 22  1  0
 10 23  1  0
 11 24  1  0
M  RAD  1  13   3
M  END
$$$$
