
     RDKit          3D

 24 24  0  0  0  0  0  0  0  0999 V2000
   -3.6214    0.9178    0.2109 C   0  0  0  0  0  0  0  0  0  0  0  0
   -2.8370   -0.1319   -0.3419 O   0  0  0  0  0  0  0  0  0  0  0  0
   -1.6439    0.1037   -1.0307 C   0  0  0  0  0  0  0  0  0  0  0  0
   -1.2154    1.2791   -1.1930 O   0  0  0  0  0  0  0  0  0  0  0  0
   -0.8471   -1.0564   -1.5419 C   0  0  0  0  0  0  0  0  0  0  0  0
   -0.0659   -1.7451   -0.4159 C   0  0  0  0  0  0  0  0  0  0  0  0
    1.0127   -0.8489    0.1500 C   0  0  0  0  0  0  0  0  0  0  0  0
    2.2331   -0.7254   -0.5371 C   0  0  0  0  0  0  0  0  0  0  0  0
    3.2369    0.1176   -0.0533 C   0  0  0  0  0  0  0  0  0  0  0  0
    3.0316    0.8507    1.1169 C   0  0  0  0  0  0  0  0  0  0  0  0
    1.8209    0.7444    1.8052 C   0  0  0  0  0  0  0  0  0  0  0  0
    0.8089   -0.0978    1.3288 C   0  0  0  0  0  0  0  0  0  0  0  0
   -0.4197   -0.1798    2.0480 N   0  0  0  0  0  1  0  0  0  0  0  0
   -4.5139    0.4839    0.7064 H   0  0  0  0  0  0  0  0  0  0  0  0
   -3.0284    1.4786    0.9642 H   0  0  0  0  0  0  0  0  0  0  0  0
   -3.9551    1.6072   -0.5934 H   0  0  0  0  0  0  0  0  0  0  0  0
   -1.5448   -1.7913   -1.9974 H   0  0  0  0  0  0  0  0  0  0  0  0
   -0.1492   -0.7195   -2.3397 H   0  0  0  0  0  0  0  0  0  0  0  0
    0.4056   -2.6654   -0.8248 H   0  0  0  0  0  0  0  0  0  0  0  0
   -0.7660   -2.0838    0.3781 H   0  0  0  0  0  0  0  0  0  0  0  0
    2.4054   -1.2817   -1.4504 H   0  0  0  0  0  0  0  0  0  0  0  0
    4.1740    0.2046   -0.5879 H   0  0  0  0  0  0  0  0  0  0  0  0
    3.8100    1.5040    1.4893 H   0  0  0  0  0  0  0  0  0  0  0  0
    1.6684    1.3199    2.7097 H   0  0  0  0  0  0  0  0  0  0  0  0
  1  2  1  0
  2  3  1  0
  3  4  2  0
  3  5  1  0
  5  6  1  0
  6  7  1  0
  7  8  2  0
  8  9  1  0
  9 10  2  0
 10 11  1  0
 11 12  2  0
 12 13  1  0
 12  7  1  0
  1 14  1  0
  1 15  1  0
  1 16  1  0
  5 17  1  0
  5 18  1  0
  6 19  1  0
  6 20  1  0
  8 21  1  0
  9 22  1  0
 10 23  1  0
 11 24  1  0
M  RAD  1  13   3
M  END
$$$$
