
     RDKit          3D

 24 24  0  0  0  0  0  0  0  0999 V2000
    3.1019   -2.1425    0.0967 C   0  0  0  0  0  0  0  0  0  0  0  0
    2.5674   -1.0654   -0.6629 O   0  0  0  0  0  0  0  0  0  0  0  0
    1.9508    0.0396   -0.0695 C   0  0  0  0  0  0  0  0  0  0  0  0
    1.8491    0.1237    1.1851 O   0  0  0  0  0  0  0  0  0  0  0  0
    1.3677    1.1118   -0.9371 C   0  0  0  0  0  0  0  0  0  0  0  0
    0.0251    0.6817   -1.5412 C   0  0  0  0  0  0  0  0  0  0  0  0
   -1.0422    0.5203   -0.4821 C   0  0  0  0  0  0  0  0  0  0  0  0
   -1.6996    1.6618    0.0095 C   0  0  0  0  0  0  0  0  0  0  0  0
   -2.6695    1.5460    1.0087 C   0  0  0  0  0  0  0  0  0  0  0  0
   -2.9891    0.2919    1.5320 C   0  0  0  0  0  0  0  0  0  0  0  0
   -2.3380   -0.8497    1.0591 C   0  0  0  0  0  0  0  0  0  0  0  0
   -1.3648   -0.7444    0.0580 C   0  0  0  0  0  0  0  0  0  0  0  0
   -0.7109   -1.9262   -0.3993 N   0  0  0  0  0  1  0  0  0  0  0  0
    3.9013   -1.7713    0.7725 H   0  0  0  0  0  0  0  0  0  0  0  0
    2.2975   -2.6218    0.6940 H   0  0  0  0  0  0  0  0  0  0  0  0
    3.5347   -2.8955   -0.5932 H   0  0  0  0  0  0  0  0  0  0  0  0
    2.0809    1.3263   -1.7615 H   0  0  0  0  0  0  0  0  0  0  0  0
    1.2403    2.0497   -0.3530 H   0  0  0  0  0  0  0  0  0  0  0  0
   -0.3001    1.4580   -2.2678 H   0  0  0  0  0  0  0  0  0  0  0  0
    0.1561   -0.2537   -2.1271 H   0  0  0  0  0  0  0  0  0  0  0  0
   -1.4579    2.6429   -0.3808 H   0  0  0  0  0  0  0  0  0  0  0  0
   -3.1718    2.4302    1.3794 H   0  0  0  0  0  0  0  0  0  0  0  0
   -3.7398    0.2046    2.3068 H   0  0  0  0  0  0  0  0  0  0  0  0
   -2.5889   -1.8181    1.4737 H   0  0  0  0  0  0  0  0  0  0  0  0
  1  2  1  0
  2  3  1  0
  3  4  2  0
  3  5  1  0
  5  6  1  0
  6  7  1  0
  7  8  2  0
  8  9  1  0
  9 10  2  0
 10 11  1  0
 11 12  2  0
 12 13  1  0
 12  7  1  0
  1 14  1  0
  1 15  1  0
  1 16  1  0
  5 17  1  0
  5 18  1  0
  6 19  1  0
  6 20  1  0
  8 21  1  0
  9 22  1  0
 10 23  1  0
 11 24  1  0
M  RAD  1  13   3
M  END
$$$$
