
     RDKit          3D

 24 24  0  0  0  0  0  0  0  0999 V2000
    3.4455    1.5286    0.1161 C   0  0  0  0  0  0  0  0  0  0  0  0
    2.8380    0.2473    0.2251 O   0  0  0  0  0  0  0  0  0  0  0  0
    1.6860    0.0237    0.9842 C   0  0  0  0  0  0  0  0  0  0  0  0
    1.1370    0.9682    1.6151 O   0  0  0  0  0  0  0  0  0  0  0  0
    1.0756   -1.3434    1.0114 C   0  0  0  0  0  0  0  0  0  0  0  0
    0.2911   -1.6374   -0.2733 C   0  0  0  0  0  0  0  0  0  0  0  0
   -0.9281   -0.7522   -0.4028 C   0  0  0  0  0  0  0  0  0  0  0  0
   -2.0941   -1.0810    0.3107 C   0  0  0  0  0  0  0  0  0  0  0  0
   -3.2263   -0.2659    0.2331 C   0  0  0  0  0  0  0  0  0  0  0  0
   -3.2052    0.8884   -0.5517 C   0  0  0  0  0  0  0  0  0  0  0  0
   -2.0510    1.2320   -1.2593 C   0  0  0  0  0  0  0  0  0  0  0  0
   -0.9113    0.4217   -1.1882 C   0  0  0  0  0  0  0  0  0  0  0  0
    0.2552    0.8019   -1.9149 N   0  0  0  0  0  1  0  0  0  0  0  0
    4.3391    1.4540   -0.5368 H   0  0  0  0  0  0  0  0  0  0  0  0
    3.7607    1.8866    1.1190 H   0  0  0  0  0  0  0  0  0  0  0  0
    2.7309    2.2507   -0.3330 H   0  0  0  0  0  0  0  0  0  0  0  0
    1.8899   -2.0921    1.1151 H   0  0  0  0  0  0  0  0  0  0  0  0
    0.4108   -1.4482    1.8969 H   0  0  0  0  0  0  0  0  0  0  0  0
    0.9587   -1.5355   -1.1560 H   0  0  0  0  0  0  0  0  0  0  0  0
   -0.0337   -2.7007   -0.2532 H   0  0  0  0  0  0  0  0  0  0  0  0
   -2.1243   -1.9692    0.9299 H   0  0  0  0  0  0  0  0  0  0  0  0
   -4.1201   -0.5282    0.7843 H   0  0  0  0  0  0  0  0  0  0  0  0
   -4.0829    1.5191   -0.6095 H   0  0  0  0  0  0  0  0  0  0  0  0
   -2.0418    2.1314   -1.8621 H   0  0  0  0  0  0  0  0  0  0  0  0
  1  2  1  0
  2  3  1  0
  3  4  2  0
  3  5  1  0
  5  6  1  0
  6  7  1  0
  7  8  2  0
  8  9  1  0
  9 10  2  0
 10 11  1  0
 11 12  2  0
 12 13  1  0
 12  7  1  0
  1 14  1  0
  1 15  1  0
  1 16  1  0
  5 17  1  0
  5 18  1  0
  6 19  1  0
  6 20  1  0
  8 21  1  0
  9 22  1  0
 10 23  1  0
 11 24  1  0
M  RAD  1  13   3
M  END
$$$$
