
     RDKit          3D

 24 24  0  0  0  0  0  0  0  0999 V2000
    2.8876    1.2235    0.1370 C   0  0  0  0  0  0  0  0  0  0  0  0
    2.0358    0.1705   -0.2960 O   0  0  0  0  0  0  0  0  0  0  0  0
    1.8615   -1.0066    0.4374 C   0  0  0  0  0  0  0  0  0  0  0  0
    2.4846   -1.1904    1.5187 O   0  0  0  0  0  0  0  0  0  0  0  0
    0.8811   -2.0329   -0.0405 C   0  0  0  0  0  0  0  0  0  0  0  0
   -0.5013   -1.8271    0.5917 C   0  0  0  0  0  0  0  0  0  0  0  0
   -1.1344   -0.5272    0.1494 C   0  0  0  0  0  0  0  0  0  0  0  0
   -1.0159    0.6141    0.9626 C   0  0  0  0  0  0  0  0  0  0  0  0
   -1.5608    1.8342    0.5543 C   0  0  0  0  0  0  0  0  0  0  0  0
   -2.2255    1.9294   -0.6697 C   0  0  0  0  0  0  0  0  0  0  0  0
   -2.3442    0.8054   -1.4904 C   0  0  0  0  0  0  0  0  0  0  0  0
   -1.7998   -0.4211   -1.0908 C   0  0  0  0  0  0  0  0  0  0  0  0
   -1.9251   -1.5509   -1.9518 N   0  0  0  0  0  1  0  0  0  0  0  0
    2.5392    1.6143    1.1165 H   0  0  0  0  0  0  0  0  0  0  0  0
    3.9315    0.8556    0.2283 H   0  0  0  0  0  0  0  0  0  0  0  0
    2.8589    2.0449   -0.6080 H   0  0  0  0  0  0  0  0  0  0  0  0
    1.2545   -3.0450    0.2272 H   0  0  0  0  0  0  0  0  0  0  0  0
    0.8055   -1.9872   -1.1483 H   0  0  0  0  0  0  0  0  0  0  0  0
   -1.1585   -2.6771    0.3078 H   0  0  0  0  0  0  0  0  0  0  0  0
   -0.4124   -1.8591    1.7003 H   0  0  0  0  0  0  0  0  0  0  0  0
   -0.4941    0.5606    1.9102 H   0  0  0  0  0  0  0  0  0  0  0  0
   -1.4645    2.7076    1.1863 H   0  0  0  0  0  0  0  0  0  0  0  0
   -2.6461    2.8757   -0.9843 H   0  0  0  0  0  0  0  0  0  0  0  0
   -2.8573    0.8889   -2.4403 H   0  0  0  0  0  0  0  0  0  0  0  0
  1  2  1  0
  2  3  1  0
  3  4  2  0
  3  5  1  0
  5  6  1  0
  6  7  1  0
  7  8  2  0
  8  9  1  0
  9 10  2  0
 10 11  1  0
 11 12  2  0
 12 13  1  0
 12  7  1  0
  1 14  1  0
  1 15  1  0
  1 16  1  0
  5 17  1  0
  5 18  1  0
  6 19  1  0
  6 20  1  0
  8 21  1  0
  9 22  1  0
 10 23  1  0
 11 24  1  0
M  RAD  1  13   3
M  END
$$$$
