
     RDKit          3D

 24 24  0  0  0  0  0  0  0  0999 V2000
    3.5993    0.7339    0.9241 C   0  0  0  0  0  0  0  0  0  0  0  0
    2.8539    0.1447   -0.1342 O   0  0  0  0  0  0  0  0  0  0  0  0
    1.7123    0.7437   -0.6739 C   0  0  0  0  0  0  0  0  0  0  0  0
    1.2979    1.8516   -0.2354 O   0  0  0  0  0  0  0  0  0  0  0  0
    0.9514    0.0390   -1.7541 C   0  0  0  0  0  0  0  0  0  0  0  0
    0.0924   -1.0992   -1.1894 C   0  0  0  0  0  0  0  0  0  0  0  0
   -1.0218   -0.5794   -0.3089 C   0  0  0  0  0  0  0  0  0  0  0  0
   -2.1910   -0.0765   -0.9064 C   0  0  0  0  0  0  0  0  0  0  0  0
   -3.2249    0.4369   -0.1192 C   0  0  0  0  0  0  0  0  0  0  0  0
   -3.1009    0.4599    1.2711 C   0  0  0  0  0  0  0  0  0  0  0  0
   -1.9415   -0.0285    1.8778 C   0  0  0  0  0  0  0  0  0  0  0  0
   -0.8998   -0.5453    1.0978 C   0  0  0  0  0  0  0  0  0  0  0  0
    0.2753   -1.0292    1.7446 N   0  0  0  0  0  1  0  0  0  0  0  0
    2.9558    0.8519    1.8217 H   0  0  0  0  0  0  0  0  0  0  0  0
    4.4543    0.0748    1.1788 H   0  0  0  0  0  0  0  0  0  0  0  0
    3.9895    1.7248    0.6088 H   0  0  0  0  0  0  0  0  0  0  0  0
    0.3116    0.7623   -2.3058 H   0  0  0  0  0  0  0  0  0  0  0  0
    1.6782   -0.3847   -2.4797 H   0  0  0  0  0  0  0  0  0  0  0  0
   -0.3506   -1.6625   -2.0396 H   0  0  0  0  0  0  0  0  0  0  0  0
    0.7348   -1.8222   -0.6417 H   0  0  0  0  0  0  0  0  0  0  0  0
   -2.2998   -0.0804   -1.9841 H   0  0  0  0  0  0  0  0  0  0  0  0
   -4.1222    0.8199   -0.5879 H   0  0  0  0  0  0  0  0  0  0  0  0
   -3.9025    0.8591    1.8790 H   0  0  0  0  0  0  0  0  0  0  0  0
   -1.8517   -0.0029    2.9567 H   0  0  0  0  0  0  0  0  0  0  0  0
  1  2  1  0
  2  3  1  0
  3  4  2  0
  3  5  1  0
  5  6  1  0
  6  7  1  0
  7  8  2  0
  8  9  1  0
  9 10  2  0
 10 11  1  0
 11 12  2  0
 12 13  1  0
 12  7  1  0
  1 14  1  0
  1 15  1  0
  1 16  1  0
  5 17  1  0
  5 18  1  0
  6 19  1  0
  6 20  1  0
  8 21  1  0
  9 22  1  0
 10 23  1  0
 11 24  1  0
M  RAD  1  13   3
M  END
$$$$
