 xtb: 6.7.1 (edcfbbe)
          07312615243D

241262  0     0  0            999 V2000
    0.2046   -1.8566   -0.8501 N   0  0  0  0  0  0  0  0  0  0  0  0
   -0.0029   -1.1925    1.9125 N   0  0  0  0  0  0  0  0  0  0  0  0
   -0.3910   -1.0709   -3.1297 C   0  0  0  0  0  0  0  0  0  0  0  0
    0.0377   -2.0433   -2.1994 C   0  0  0  0  0  0  0  0  0  0  0  0
    0.4266   -3.3937   -2.5598 C   0  0  0  0  0  0  0  0  0  0  0  0
    0.3834   -3.8025   -3.5704 H   0  0  0  0  0  0  0  0  0  0  0  0
    0.8542   -4.0004   -1.4123 C   0  0  0  0  0  0  0  0  0  0  0  0
    1.2344   -5.0146   -1.2834 H   0  0  0  0  0  0  0  0  0  0  0  0
    0.6794   -3.0422   -0.3379 C   0  0  0  0  0  0  0  0  0  0  0  0
    0.8723   -3.3415    1.0250 C   0  0  0  0  0  0  0  0  0  0  0  0
    0.4830   -2.4678    2.0604 C   0  0  0  0  0  0  0  0  0  0  0  0
    0.4185   -2.8516    3.4579 C   0  0  0  0  0  0  0  0  0  0  0  0
    0.7447   -3.8165    3.8487 H   0  0  0  0  0  0  0  0  0  0  0  0
   -0.1564   -1.8119    4.1307 C   0  0  0  0  0  0  0  0  0  0  0  0
   -0.3922   -1.7335    5.1928 H   0  0  0  0  0  0  0  0  0  0  0  0
   -0.4038   -0.7675    3.1543 C   0  0  0  0  0  0  0  0  0  0  0  0
    1.4037   -4.6996    1.4002 C   0  0  0  0  0  0  0  0  0  0  0  0
    2.7467   -4.8668    1.8131 C   0  0  0  0  0  0  0  0  0  0  0  0
    3.2518   -6.1303    2.1688 C   0  0  0  0  0  0  0  0  0  0  0  0
    2.4088   -7.2436    2.1043 C   0  0  0  0  0  0  0  0  0  0  0  0
    2.8016   -8.2336    2.3709 H   0  0  0  0  0  0  0  0  0  0  0  0
    1.0762   -7.1187    1.7030 C   0  0  0  0  0  0  0  0  0  0  0  0
    0.5757   -5.8475    1.3632 C   0  0  0  0  0  0  0  0  0  0  0  0
   -0.7302    1.4987    1.2032 N   0  0  0  0  0  0  0  0  0  0  0  0
   -0.4738    0.8412   -1.5435 N   0  0  0  0  0  0  0  0  0  0  0  0
   -0.9463    0.4953    3.4694 C   0  0  0  0  0  0  0  0  0  0  0  0
   -1.0321    1.5558    2.5400 C   0  0  0  0  0  0  0  0  0  0  0  0
   -1.3877    2.9145    2.8981 C   0  0  0  0  0  0  0  0  0  0  0  0
   -1.6918    3.2305    3.8969 H   0  0  0  0  0  0  0  0  0  0  0  0
   -1.2471    3.6723    1.7687 C   0  0  0  0  0  0  0  0  0  0  0  0
   -1.4203    4.7417    1.6448 H   0  0  0  0  0  0  0  0  0  0  0  0
   -0.8704    2.7699    0.7007 C   0  0  0  0  0  0  0  0  0  0  0  0
   -0.7593    3.1424   -0.6526 C   0  0  0  0  0  0  0  0  0  0  0  0
   -0.6561    2.1944   -1.6882 C   0  0  0  0  0  0  0  0  0  0  0  0
   -0.8698    2.5095   -3.0868 C   0  0  0  0  0  0  0  0  0  0  0  0
   -1.0391    3.5142   -3.4757 H   0  0  0  0  0  0  0  0  0  0  0  0
   -0.8678    1.3246   -3.7661 C   0  0  0  0  0  0  0  0  0  0  0  0
   -1.0314    1.1494   -4.8302 H   0  0  0  0  0  0  0  0  0  0  0  0
   -0.5865    0.2853   -2.7940 C   0  0  0  0  0  0  0  0  0  0  0  0
   -0.8224    4.5968   -1.0324 C   0  0  0  0  0  0  0  0  0  0  0  0
    0.3664    5.2779   -1.3923 C   0  0  0  0  0  0  0  0  0  0  0  0
    0.3395    6.6222   -1.8060 C   0  0  0  0  0  0  0  0  0  0  0  0
   -0.8821    7.3021   -1.8327 C   0  0  0  0  0  0  0  0  0  0  0  0
   -0.9069    8.3541   -2.1461 H   0  0  0  0  0  0  0  0  0  0  0  0
   -2.0731    6.6657   -1.4707 C   0  0  0  0  0  0  0  0  0  0  0  0
   -2.0423    5.3115   -1.0877 C   0  0  0  0  0  0  0  0  0  0  0  0
   -0.1546   -0.1475    0.1817 Fe  0  0  0  0  0  0  0  0  0  0  0  0
   -2.3871   -0.7542    0.1769 Cl  0  0  0  0  0  0  0  0  0  0  0  0
   -1.5152    0.7079    4.8509 C   0  0  0  0  0  0  0  0  0  0  0  0
   -0.7326    1.2359    5.9125 C   0  0  0  0  0  0  0  0  0  0  0  0
   -2.8755    0.3651    5.0897 C   0  0  0  0  0  0  0  0  0  0  0  0
   -1.2983    1.4238    7.1899 C   0  0  0  0  0  0  0  0  0  0  0  0
    0.6156    1.5753    5.6324 N   0  0  0  0  0  0  0  0  0  0  0  0
   -3.4366    0.5777    6.3672 C   0  0  0  0  0  0  0  0  0  0  0  0
   -3.6185   -0.2115    4.0319 N   0  0  0  0  0  0  0  0  0  0  0  0
   -0.6748    1.8180    7.9970 H   0  0  0  0  0  0  0  0  0  0  0  0
   -2.6425    1.0977    7.3928 C   0  0  0  0  0  0  0  0  0  0  0  0
    1.6057    1.9703    6.5048 C   0  0  0  0  0  0  0  0  0  0  0  0
    0.8786    1.4742    4.6505 H   0  0  0  0  0  0  0  0  0  0  0  0
   -4.4888    0.3296    6.5276 H   0  0  0  0  0  0  0  0  0  0  0  0
   -4.9521   -0.5699    4.0225 C   0  0  0  0  0  0  0  0  0  0  0  0
   -3.0984   -0.3881    3.1672 H   0  0  0  0  0  0  0  0  0  0  0  0
   -3.0851    1.2523    8.3854 H   0  0  0  0  0  0  0  0  0  0  0  0
    1.4720    2.0754    7.7193 O   0  0  0  0  0  0  0  0  0  0  0  0
    2.9284    2.2827    5.8387 C   0  0  0  0  0  0  0  0  0  0  0  0
   -5.7405   -0.3303    4.9319 O   0  0  0  0  0  0  0  0  0  0  0  0
   -5.3845   -1.3120    2.7805 C   0  0  0  0  0  0  0  0  0  0  0  0
    4.1888    1.8800    6.5613 C   0  0  0  0  0  0  0  0  0  0  0  0
    2.9730    2.2875    4.7442 H   0  0  0  0  0  0  0  0  0  0  0  0
    3.7866    3.3349    6.5508 C   0  0  0  0  0  0  0  0  0  0  0  0
   -6.7395   -0.9948    2.1987 C   0  0  0  0  0  0  0  0  0  0  0  0
   -4.6115   -1.6302    2.0714 H   0  0  0  0  0  0  0  0  0  0  0  0
   -6.5667   -2.2671    2.9939 C   0  0  0  0  0  0  0  0  0  0  0  0
    4.0723    1.3543    7.5125 H   0  0  0  0  0  0  0  0  0  0  0  0
    5.0428    1.5924    5.9445 H   0  0  0  0  0  0  0  0  0  0  0  0
    3.3650    3.7358    7.4758 H   0  0  0  0  0  0  0  0  0  0  0  0
    4.5677    4.2945    5.7121 C   0  0  0  0  0  0  0  0  0  0  0  0
   -7.3165   -0.2051    2.6882 H   0  0  0  0  0  0  0  0  0  0  0  0
   -6.8372   -1.0771    1.1126 H   0  0  0  0  0  0  0  0  0  0  0  0
   -6.9776   -2.2716    4.0083 H   0  0  0  0  0  0  0  0  0  0  0  0
   -6.5665   -3.5843    2.2935 C   0  0  0  0  0  0  0  0  0  0  0  0
    4.6816    5.4870    6.3229 O   0  0  0  0  0  0  0  0  0  0  0  0
    5.0532    4.0354    4.6276 O   0  0  0  0  0  0  0  0  0  0  0  0
   -7.1814   -4.5254    3.0434 O   0  0  0  0  0  0  0  0  0  0  0  0
   -6.0941   -3.8008    1.1956 O   0  0  0  0  0  0  0  0  0  0  0  0
    5.4302    6.5469    5.6573 C   0  0  0  0  0  0  0  0  0  0  0  0
   -7.2913   -5.8713    2.5007 C   0  0  0  0  0  0  0  0  0  0  0  0
    4.4525    7.4399    4.8806 C   0  0  0  0  0  0  0  0  0  0  0  0
    6.2079    7.2899    6.7424 C   0  0  0  0  0  0  0  0  0  0  0  0
    6.1188    6.0547    4.9474 H   0  0  0  0  0  0  0  0  0  0  0  0
   -7.2870   -6.8271    3.6948 C   0  0  0  0  0  0  0  0  0  0  0  0
   -8.5553   -5.9684    1.6391 C   0  0  0  0  0  0  0  0  0  0  0  0
   -6.4010   -6.0381    1.8649 H   0  0  0  0  0  0  0  0  0  0  0  0
    3.9271    6.8541    4.1085 H   0  0  0  0  0  0  0  0  0  0  0  0
    3.7109    7.8788    5.5612 H   0  0  0  0  0  0  0  0  0  0  0  0
    5.0000    8.2560    4.3893 H   0  0  0  0  0  0  0  0  0  0  0  0
    6.8802    6.6067    7.2772 H   0  0  0  0  0  0  0  0  0  0  0  0
    6.8166    8.0898    6.3002 H   0  0  0  0  0  0  0  0  0  0  0  0
    5.5270    7.7400    7.4761 H   0  0  0  0  0  0  0  0  0  0  0  0
   -6.3667   -6.7058    4.2807 H   0  0  0  0  0  0  0  0  0  0  0  0
   -8.1490   -6.6356    4.3515 H   0  0  0  0  0  0  0  0  0  0  0  0
   -7.3499   -7.8685    3.3503 H   0  0  0  0  0  0  0  0  0  0  0  0
   -8.4995   -5.2616    0.8000 H   0  0  0  0  0  0  0  0  0  0  0  0
   -8.6638   -6.9838    1.2333 H   0  0  0  0  0  0  0  0  0  0  0  0
   -9.4519   -5.7443    2.2370 H   0  0  0  0  0  0  0  0  0  0  0  0
   -0.6451   -1.5289   -4.5441 C   0  0  0  0  0  0  0  0  0  0  0  0
    0.3104   -1.3260   -5.5766 C   0  0  0  0  0  0  0  0  0  0  0  0
   -1.8577   -2.2093   -4.8427 C   0  0  0  0  0  0  0  0  0  0  0  0
    0.0890   -1.8511   -6.8651 C   0  0  0  0  0  0  0  0  0  0  0  0
    1.4638   -0.5639   -5.2603 N   0  0  0  0  0  0  0  0  0  0  0  0
   -2.0675   -2.7389   -6.1337 C   0  0  0  0  0  0  0  0  0  0  0  0
   -2.8377   -2.2869   -3.8258 N   0  0  0  0  0  0  0  0  0  0  0  0
    0.8410   -1.6893   -7.6427 H   0  0  0  0  0  0  0  0  0  0  0  0
   -1.0908   -2.5594   -7.1178 C   0  0  0  0  0  0  0  0  0  0  0  0
    2.4072   -0.0287   -6.1102 C   0  0  0  0  0  0  0  0  0  0  0  0
    1.4911   -0.2399   -4.2921 H   0  0  0  0  0  0  0  0  0  0  0  0
   -2.9950   -3.2808   -6.3369 H   0  0  0  0  0  0  0  0  0  0  0  0
   -4.0744   -2.8993   -3.8669 C   0  0  0  0  0  0  0  0  0  0  0  0
   -2.6131   -1.7816   -2.9645 H   0  0  0  0  0  0  0  0  0  0  0  0
   -1.2592   -2.9754   -8.1196 H   0  0  0  0  0  0  0  0  0  0  0  0
    2.5034   -0.2809   -7.3053 O   0  0  0  0  0  0  0  0  0  0  0  0
    3.3241    0.9724   -5.4395 C   0  0  0  0  0  0  0  0  0  0  0  0
   -4.4676   -3.6089   -4.7872 O   0  0  0  0  0  0  0  0  0  0  0  0
   -4.9406   -2.6036   -2.6667 C   0  0  0  0  0  0  0  0  0  0  0  0
    3.6489    2.2218   -6.2208 C   0  0  0  0  0  0  0  0  0  0  0  0
    3.2705    1.0768   -4.3503 H   0  0  0  0  0  0  0  0  0  0  0  0
    4.7114    1.1608   -6.0531 C   0  0  0  0  0  0  0  0  0  0  0  0
   -5.8504   -3.6897   -2.1528 C   0  0  0  0  0  0  0  0  0  0  0  0
   -4.5678   -1.8897   -1.9228 H   0  0  0  0  0  0  0  0  0  0  0  0
   -6.4483   -2.5627   -2.9596 C   0  0  0  0  0  0  0  0  0  0  0  0
    3.2078    2.3106   -7.2171 H   0  0  0  0  0  0  0  0  0  0  0  0
    3.7711    3.1483   -5.6549 H   0  0  0  0  0  0  0  0  0  0  0  0
    4.9421    0.5421   -6.9243 H   0  0  0  0  0  0  0  0  0  0  0  0
    5.8456    1.4515   -5.1215 C   0  0  0  0  0  0  0  0  0  0  0  0
   -5.7990   -4.6565   -2.6605 H   0  0  0  0  0  0  0  0  0  0  0  0
   -6.0255   -3.7043   -1.0738 H   0  0  0  0  0  0  0  0  0  0  0  0
   -6.7253   -2.7889   -3.9939 H   0  0  0  0  0  0  0  0  0  0  0  0
   -7.2754   -1.5177   -2.2869 C   0  0  0  0  0  0  0  0  0  0  0  0
    7.0055    0.9827   -5.6107 O   0  0  0  0  0  0  0  0  0  0  0  0
    5.7375    2.0494   -4.0667 O   0  0  0  0  0  0  0  0  0  0  0  0
   -8.2718   -1.0984   -3.0962 O   0  0  0  0  0  0  0  0  0  0  0  0
   -7.0994   -1.0960   -1.1615 O   0  0  0  0  0  0  0  0  0  0  0  0
    8.2261    1.2008   -4.8433 C   0  0  0  0  0  0  0  0  0  0  0  0
   -9.1820   -0.0806   -2.5912 C   0  0  0  0  0  0  0  0  0  0  0  0
    9.1199   -0.0176   -5.0811 C   0  0  0  0  0  0  0  0  0  0  0  0
    8.8586    2.5261   -5.2774 C   0  0  0  0  0  0  0  0  0  0  0  0
    7.9294    1.2656   -3.7789 H   0  0  0  0  0  0  0  0  0  0  0  0
   -8.6008    1.3111   -2.8721 C   0  0  0  0  0  0  0  0  0  0  0  0
  -10.5327   -0.3295   -3.2614 C   0  0  0  0  0  0  0  0  0  0  0  0
   -9.2546   -0.2280   -1.4982 H   0  0  0  0  0  0  0  0  0  0  0  0
    8.6043   -0.9359   -4.7705 H   0  0  0  0  0  0  0  0  0  0  0  0
    9.3845   -0.1049   -6.1459 H   0  0  0  0  0  0  0  0  0  0  0  0
   10.0523    0.0784   -4.5084 H   0  0  0  0  0  0  0  0  0  0  0  0
    8.1728    3.3607   -5.0832 H   0  0  0  0  0  0  0  0  0  0  0  0
    9.7883    2.7071   -4.7208 H   0  0  0  0  0  0  0  0  0  0  0  0
    9.1042    2.5068   -6.3505 H   0  0  0  0  0  0  0  0  0  0  0  0
   -7.6336    1.4329   -2.3580 H   0  0  0  0  0  0  0  0  0  0  0  0
   -8.4535    1.4563   -3.9512 H   0  0  0  0  0  0  0  0  0  0  0  0
   -9.2883    2.0880   -2.5096 H   0  0  0  0  0  0  0  0  0  0  0  0
  -10.8962   -1.3431   -3.0410 H   0  0  0  0  0  0  0  0  0  0  0  0
  -11.2800    0.3890   -2.8990 H   0  0  0  0  0  0  0  0  0  0  0  0
  -10.4555   -0.2221   -4.3514 H   0  0  0  0  0  0  0  0  0  0  0  0
    4.2952   -6.2357    2.4885 H   0  0  0  0  0  0  0  0  0  0  0  0
    0.4237   -7.9978    1.6489 H   0  0  0  0  0  0  0  0  0  0  0  0
    1.2651    7.1237   -2.1111 H   0  0  0  0  0  0  0  0  0  0  0  0
   -3.0253    7.2090   -1.4876 H   0  0  0  0  0  0  0  0  0  0  0  0
    3.5089   -3.7197    1.8453 O   0  0  0  0  0  0  0  0  0  0  0  0
   -0.7134   -5.6377    0.9332 O   0  0  0  0  0  0  0  0  0  0  0  0
    1.5089    4.5085   -1.3809 O   0  0  0  0  0  0  0  0  0  0  0  0
   -3.1612    4.6154   -0.6934 O   0  0  0  0  0  0  0  0  0  0  0  0
    4.8468   -3.7794    2.2355 C   0  0  0  0  0  0  0  0  0  0  0  0
    5.8404   -4.0645    1.2891 C   0  0  0  0  0  0  0  0  0  0  0  0
    5.1869   -3.4734    3.5596 C   0  0  0  0  0  0  0  0  0  0  0  0
    7.1856   -4.0503    1.6796 C   0  0  0  0  0  0  0  0  0  0  0  0
    5.5498   -4.2901    0.2578 H   0  0  0  0  0  0  0  0  0  0  0  0
    6.5357   -3.4600    3.9383 C   0  0  0  0  0  0  0  0  0  0  0  0
    4.3880   -3.2434    4.2724 H   0  0  0  0  0  0  0  0  0  0  0  0
    7.5367   -3.7501    3.0021 C   0  0  0  0  0  0  0  0  0  0  0  0
    7.9662   -4.2727    0.9431 H   0  0  0  0  0  0  0  0  0  0  0  0
    6.8075   -3.2200    4.9724 H   0  0  0  0  0  0  0  0  0  0  0  0
    8.5929   -3.7406    3.3031 H   0  0  0  0  0  0  0  0  0  0  0  0
   -1.6980   -6.6066    1.0985 C   0  0  0  0  0  0  0  0  0  0  0  0
   -2.0759   -7.0570    2.3716 C   0  0  0  0  0  0  0  0  0  0  0  0
   -2.3646   -7.0638   -0.0467 C   0  0  0  0  0  0  0  0  0  0  0  0
   -3.1146   -7.9885    2.4901 C   0  0  0  0  0  0  0  0  0  0  0  0
   -1.5573   -6.6718    3.2561 H   0  0  0  0  0  0  0  0  0  0  0  0
   -3.4076   -7.9888    0.0864 C   0  0  0  0  0  0  0  0  0  0  0  0
   -2.0580   -6.6784   -1.0245 H   0  0  0  0  0  0  0  0  0  0  0  0
   -3.7814   -8.4592    1.3516 C   0  0  0  0  0  0  0  0  0  0  0  0
   -3.4100   -8.3459    3.4827 H   0  0  0  0  0  0  0  0  0  0  0  0
   -3.9308   -8.3464   -0.8070 H   0  0  0  0  0  0  0  0  0  0  0  0
   -4.5941   -9.1906    1.4516 H   0  0  0  0  0  0  0  0  0  0  0  0
    2.7877    5.0366   -1.2774 C   0  0  0  0  0  0  0  0  0  0  0  0
    3.1178    6.0858   -0.4045 C   0  0  0  0  0  0  0  0  0  0  0  0
    3.7895    4.3981   -2.0261 C   0  0  0  0  0  0  0  0  0  0  0  0
    4.4511    6.5043   -0.3056 C   0  0  0  0  0  0  0  0  0  0  0  0
    2.3364    6.5660    0.1947 H   0  0  0  0  0  0  0  0  0  0  0  0
    5.1182    4.8181   -1.9102 C   0  0  0  0  0  0  0  0  0  0  0  0
    3.5194    3.5676   -2.6861 H   0  0  0  0  0  0  0  0  0  0  0  0
    5.4547    5.8775   -1.0559 C   0  0  0  0  0  0  0  0  0  0  0  0
    4.7079    7.3275    0.3732 H   0  0  0  0  0  0  0  0  0  0  0  0
    5.8837    4.2990   -2.4979 H   0  0  0  0  0  0  0  0  0  0  0  0
    6.4963    6.2135   -0.9693 H   0  0  0  0  0  0  0  0  0  0  0  0
   -4.4416    5.0348   -1.0355 C   0  0  0  0  0  0  0  0  0  0  0  0
   -4.8150    5.2618   -2.3681 C   0  0  0  0  0  0  0  0  0  0  0  0
   -5.3862    5.1392   -0.0043 C   0  0  0  0  0  0  0  0  0  0  0  0
   -6.1383    5.6142   -2.6603 C   0  0  0  0  0  0  0  0  0  0  0  0
   -4.0709    5.1545   -3.1644 H   0  0  0  0  0  0  0  0  0  0  0  0
   -6.7080    5.4849   -0.3113 C   0  0  0  0  0  0  0  0  0  0  0  0
   -5.0682    4.9384    1.0237 H   0  0  0  0  0  0  0  0  0  0  0  0
   -7.0877    5.7297   -1.6369 C   0  0  0  0  0  0  0  0  0  0  0  0
   -6.4330    5.7920   -3.7003 H   0  0  0  0  0  0  0  0  0  0  0  0
   -7.4473    5.5654    0.4928 H   0  0  0  0  0  0  0  0  0  0  0  0
   -8.1240    6.0050   -1.8736 H   0  0  0  0  0  0  0  0  0  0  0  0
    1.3558    0.4693    0.3049 N   0  0  0  0  0  0  0  0  0  0  0  0
    2.3541    1.2780    0.4815 C   0  0  0  0  0  0  0  0  0  0  0  0
    2.3472    2.2233    1.5484 C   0  0  0  0  0  0  0  0  0  0  0  0
    3.4077    3.0673    1.7495 C   0  0  0  0  0  0  0  0  0  0  0  0
    4.5215    3.0183    0.9210 C   0  0  0  0  0  0  0  0  0  0  0  0
    4.5617    2.0903   -0.1089 C   0  0  0  0  0  0  0  0  0  0  0  0
    3.5210    1.2196   -0.3426 C   0  0  0  0  0  0  0  0  0  0  0  0
    3.6455    0.1088   -1.3399 C   0  0  0  0  0  0  0  0  0  0  0  0
    4.0114   -1.2260   -0.6255 C   0  0  0  0  0  0  0  0  0  0  0  0
    4.5368   -0.9652    0.7540 C   0  0  0  0  0  0  0  0  0  0  0  0
    5.8733   -0.6762    1.0138 C   0  0  0  0  0  0  0  0  0  0  0  0
    6.2527   -0.3611    2.3062 C   0  0  0  0  0  0  0  0  0  0  0  0
    5.4078   -0.3230    3.3261 N   0  0  0  0  0  0  0  0  0  0  0  0
    4.1512   -0.6157    3.0711 C   0  0  0  0  0  0  0  0  0  0  0  0
    3.0703   -0.5972    4.4192 Cl  0  0  0  0  0  0  0  0  0  0  0  0
    3.6519   -0.9404    1.8250 C   0  0  0  0  0  0  0  0  0  0  0  0
    1.4830    2.2491    2.1912 H   0  0  0  0  0  0  0  0  0  0  0  0
    3.3892    3.7667    2.5719 H   0  0  0  0  0  0  0  0  0  0  0  0
    5.3509    3.6840    1.0914 H   0  0  0  0  0  0  0  0  0  0  0  0
    5.4317    2.0403   -0.7461 H   0  0  0  0  0  0  0  0  0  0  0  0
    2.6946   -0.0248   -1.8598 H   0  0  0  0  0  0  0  0  0  0  0  0
    4.4214    0.3708   -2.0601 H   0  0  0  0  0  0  0  0  0  0  0  0
    3.1167   -1.8425   -0.5392 H   0  0  0  0  0  0  0  0  0  0  0  0
    4.7545   -1.7610   -1.2167 H   0  0  0  0  0  0  0  0  0  0  0  0
    6.6047   -0.6905    0.2223 H   0  0  0  0  0  0  0  0  0  0  0  0
    7.2761   -0.1209    2.5557 H   0  0  0  0  0  0  0  0  0  0  0  0
    2.6084   -1.1699    1.6920 H   0  0  0  0  0  0  0  0  0  0  0  0
  1  4  4  0  0  0  0
  3  4  4  0  0  0  0
  4  5  1  0  0  0  0
  5  6  1  0  0  0  0
  5  7  2  0  0  0  0
  7  8  1  0  0  0  0
  1  9  4  0  0  0  0
  7  9  1  0  0  0  0
  9 10  4  0  0  0  0
  2 11  4  0  0  0  0
 10 11  4  0  0  0  0
 11 12  1  0  0  0  0
 12 13  1  0  0  0  0
 12 14  2  0  0  0  0
 14 15  1  0  0  0  0
  2 16  4  0  0  0  0
 14 16  1  0  0  0  0
 10 17  1  0  0  0  0
 17 18  4  0  0  0  0
 18 19  4  0  0  0  0
 19 20  4  0  0  0  0
 20 21  1  0  0  0  0
 20 22  4  0  0  0  0
 17 23  4  0  0  0  0
 22 23  4  0  0  0  0
 16 26  4  0  0  0  0
 24 27  4  0  0  0  0
 26 27  4  0  0  0  0
 27 28  1  0  0  0  0
 28 29  1  0  0  0  0
 28 30  2  0  0  0  0
 30 31  1  0  0  0  0
 24 32  4  0  0  0  0
 30 32  1  0  0  0  0
 32 33  4  0  0  0  0
 25 34  4  0  0  0  0
 33 34  4  0  0  0  0
 34 35  1  0  0  0  0
 35 36  1  0  0  0  0
 35 37  2  0  0  0  0
 37 38  1  0  0  0  0
  3 39  4  0  0  0  0
 25 39  4  0  0  0  0
 37 39  1  0  0  0  0
 33 40  1  0  0  0  0
 40 41  4  0  0  0  0
 41 42  4  0  0  0  0
 42 43  4  0  0  0  0
 43 44  1  0  0  0  0
 43 45  4  0  0  0  0
 40 46  4  0  0  0  0
 45 46  4  0  0  0  0
  1 47  1  0  0  0  0
  2 47  1  0  0  0  0
 24 47  1  0  0  0  0
 25 47  1  0  0  0  0
 47 48  1  0  0  0  0
 26 49  1  0  0  0  0
 49 50  4  0  0  0  0
 49 51  4  0  0  0  0
 50 52  4  0  0  0  0
 50 53  1  0  0  0  0
 51 54  4  0  0  0  0
 51 55  1  0  0  0  0
 52 56  1  0  0  0  0
 52 57  4  0  0  0  0
 54 57  4  0  0  0  0
 53 58  4  0  0  0  0
 53 59  1  0  0  0  0
 54 60  1  0  0  0  0
 55 61  4  0  0  0  0
 55 62  1  0  0  0  0
 57 63  1  0  0  0  0
 58 64  2  0  0  0  0
 58 65  1  0  0  0  0
 61 66  2  0  0  0  0
 61 67  1  0  0  0  0
 65 68  1  0  0  0  0
 65 69  1  0  0  0  0
 65 70  1  0  0  0  0
 68 70  1  0  0  0  0
 67 71  1  0  0  0  0
 67 72  1  0  0  0  0
 67 73  1  0  0  0  0
 71 73  1  0  0  0  0
 68 74  1  0  0  0  0
 68 75  1  0  0  0  0
 70 76  1  0  0  0  0
 70 77  1  0  0  0  0
 71 78  1  0  0  0  0
 71 79  1  0  0  0  0
 73 80  1  0  0  0  0
 73 81  1  0  0  0  0
 77 82  1  0  0  0  0
 77 83  2  0  0  0  0
 81 84  1  0  0  0  0
 81 85  2  0  0  0  0
 82 86  1  0  0  0  0
 84 87  1  0  0  0  0
 86 88  1  0  0  0  0
 86 89  1  0  0  0  0
 86 90  1  0  0  0  0
 87 91  1  0  0  0  0
 87 92  1  0  0  0  0
 87 93  1  0  0  0  0
 88 94  1  0  0  0  0
 88 95  1  0  0  0  0
 88 96  1  0  0  0  0
 89 97  1  0  0  0  0
 89 98  1  0  0  0  0
 89 99  1  0  0  0  0
 91100  1  0  0  0  0
 91101  1  0  0  0  0
 91102  1  0  0  0  0
 92103  1  0  0  0  0
 92104  1  0  0  0  0
 92105  1  0  0  0  0
  3106  1  0  0  0  0
106107  4  0  0  0  0
106108  4  0  0  0  0
107109  4  0  0  0  0
107110  1  0  0  0  0
108111  4  0  0  0  0
108112  1  0  0  0  0
109113  1  0  0  0  0
109114  4  0  0  0  0
111114  4  0  0  0  0
110115  4  0  0  0  0
110116  1  0  0  0  0
111117  1  0  0  0  0
112118  4  0  0  0  0
112119  1  0  0  0  0
114120  1  0  0  0  0
115121  2  0  0  0  0
115122  1  0  0  0  0
118123  2  0  0  0  0
118124  1  0  0  0  0
122125  1  0  0  0  0
122126  1  0  0  0  0
122127  1  0  0  0  0
125127  1  0  0  0  0
124128  1  0  0  0  0
124129  1  0  0  0  0
124130  1  0  0  0  0
128130  1  0  0  0  0
125131  1  0  0  0  0
125132  1  0  0  0  0
127133  1  0  0  0  0
127134  1  0  0  0  0
128135  1  0  0  0  0
128136  1  0  0  0  0
130137  1  0  0  0  0
130138  1  0  0  0  0
134139  1  0  0  0  0
134140  2  0  0  0  0
138141  1  0  0  0  0
138142  2  0  0  0  0
139143  1  0  0  0  0
141144  1  0  0  0  0
143145  1  0  0  0  0
143146  1  0  0  0  0
143147  1  0  0  0  0
144148  1  0  0  0  0
144149  1  0  0  0  0
144150  1  0  0  0  0
145151  1  0  0  0  0
145152  1  0  0  0  0
145153  1  0  0  0  0
146154  1  0  0  0  0
146155  1  0  0  0  0
146156  1  0  0  0  0
148157  1  0  0  0  0
148158  1  0  0  0  0
148159  1  0  0  0  0
149160  1  0  0  0  0
149161  1  0  0  0  0
149162  1  0  0  0  0
 19163  1  0  0  0  0
 22164  1  0  0  0  0
 42165  1  0  0  0  0
 45166  1  0  0  0  0
 18167  1  0  0  0  0
 23168  1  0  0  0  0
 41169  1  0  0  0  0
 46170  1  0  0  0  0
167171  1  0  0  0  0
171172  4  0  0  0  0
171173  4  0  0  0  0
172174  4  0  0  0  0
172175  1  0  0  0  0
173176  4  0  0  0  0
173177  1  0  0  0  0
174178  4  0  0  0  0
176178  4  0  0  0  0
174179  1  0  0  0  0
176180  1  0  0  0  0
178181  1  0  0  0  0
168182  1  0  0  0  0
182183  4  0  0  0  0
182184  4  0  0  0  0
183185  4  0  0  0  0
183186  1  0  0  0  0
184187  4  0  0  0  0
184188  1  0  0  0  0
185189  4  0  0  0  0
187189  4  0  0  0  0
185190  1  0  0  0  0
187191  1  0  0  0  0
189192  1  0  0  0  0
169193  1  0  0  0  0
193194  4  0  0  0  0
193195  4  0  0  0  0
194196  4  0  0  0  0
194197  1  0  0  0  0
195198  4  0  0  0  0
195199  1  0  0  0  0
196200  4  0  0  0  0
198200  4  0  0  0  0
196201  1  0  0  0  0
198202  1  0  0  0  0
200203  1  0  0  0  0
170204  1  0  0  0  0
204205  4  0  0  0  0
204206  4  0  0  0  0
205207  4  0  0  0  0
205208  1  0  0  0  0
206209  4  0  0  0  0
206210  1  0  0  0  0
207211  4  0  0  0  0
209211  4  0  0  0  0
207212  1  0  0  0  0
209213  1  0  0  0  0
211214  1  0  0  0  0
 47215  2  0  0  0  0
215216  4  0  0  0  0
216217  1  0  0  0  0
217218  2  0  0  0  0
218219  4  0  0  0  0
219220  4  0  0  0  0
216221  1  0  0  0  0
220221  4  0  0  0  0
221222  1  0  0  0  0
222223  1  0  0  0  0
223224  1  0  0  0  0
224225  4  0  0  0  0
225226  4  0  0  0  0
226227  4  0  0  0  0
227228  4  0  0  0  0
228229  1  0  0  0  0
224230  4  0  0  0  0
228230  4  0  0  0  0
217231  1  0  0  0  0
218232  1  0  0  0  0
219233  1  0  0  0  0
220234  1  0  0  0  0
222235  1  0  0  0  0
222236  1  0  0  0  0
223237  1  0  0  0  0
223238  1  0  0  0  0
225239  1  0  0  0  0
226240  1  0  0  0  0
230241  1  0  0  0  0
M  END
