
     RDKit          3D

 28 29  0  0  0  0  0  0  0  0999 V2000
   -2.9327   -1.9458    0.7056 N   0  0  0  0  0  1  0  0  0  0  0  0
   -2.5648   -0.6056    0.3866 C   0  0  0  0  0  0  0  0  0  0  0  0
   -3.2169    0.4530    1.0302 C   0  0  0  0  0  0  0  0  0  0  0  0
   -2.8661    1.7745    0.7442 C   0  0  0  0  0  0  0  0  0  0  0  0
   -1.8613    2.0452   -0.1865 C   0  0  0  0  0  0  0  0  0  0  0  0
   -1.2065    0.9956   -0.8356 C   0  0  0  0  0  0  0  0  0  0  0  0
   -1.5536   -0.3394   -0.5611 C   0  0  0  0  0  0  0  0  0  0  0  0
   -0.7944   -1.4601   -1.2342 C   0  0  0  0  0  0  0  0  0  0  0  0
    0.3214   -2.0150   -0.3371 C   0  0  0  0  0  0  0  0  0  0  0  0
    1.3766   -0.9770   -0.0514 C   0  0  0  0  0  0  0  0  0  0  0  0
    2.3866   -0.7175   -0.9921 C   0  0  0  0  0  0  0  0  0  0  0  0
    3.3344    0.2812   -0.7498 C   0  0  0  0  0  0  0  0  0  0  0  0
    3.2752    1.0335    0.4264 C   0  0  0  0  0  0  0  0  0  0  0  0
    2.2667    0.7887    1.3640 C   0  0  0  0  0  0  0  0  0  0  0  0
    2.1727    1.8310    2.9612 Br  0  0  0  0  0  0  0  0  0  0  0  0
    1.3198   -0.2133    1.1268 C   0  0  0  0  0  0  0  0  0  0  0  0
   -3.9942    0.2517    1.7568 H   0  0  0  0  0  0  0  0  0  0  0  0
   -3.3711    2.5892    1.2469 H   0  0  0  0  0  0  0  0  0  0  0  0
   -1.5860    3.0695   -0.4020 H   0  0  0  0  0  0  0  0  0  0  0  0
   -0.4196    1.2232   -1.5442 H   0  0  0  0  0  0  0  0  0  0  0  0
   -0.3585   -1.1108   -2.1963 H   0  0  0  0  0  0  0  0  0  0  0  0
   -1.4953   -2.2834   -1.4909 H   0  0  0  0  0  0  0  0  0  0  0  0
   -0.1124   -2.3980    0.6125 H   0  0  0  0  0  0  0  0  0  0  0  0
    0.7908   -2.8849   -0.8460 H   0  0  0  0  0  0  0  0  0  0  0  0
    2.4351   -1.2840   -1.9139 H   0  0  0  0  0  0  0  0  0  0  0  0
    4.1117    0.4764   -1.4773 H   0  0  0  0  0  0  0  0  0  0  0  0
    4.0088    1.8089    0.6059 H   0  0  0  0  0  0  0  0  0  0  0  0
    0.5336   -0.3868    1.8514 H   0  0  0  0  0  0  0  0  0  0  0  0
  1  2  1  0
  2  3  2  0
  3  4  1  0
  4  5  2  0
  5  6  1  0
  6  7  2  0
  7  8  1  0
  8  9  1  0
  9 10  1  0
 10 11  2  0
 11 12  1  0
 12 13  2  0
 13 14  1  0
 14 15  1  0
 14 16  2  0
  7  2  1  0
 16 10  1  0
  3 17  1  0
  4 18  1  0
  5 19  1  0
  6 20  1  0
  8 21  1  0
  8 22  1  0
  9 23  1  0
  9 24  1  0
 11 25  1  0
 12 26  1  0
 13 27  1  0
 16 28  1  0
M  RAD  1   1   3
M  END
$$$$
