
     RDKit          3D

 28 29  0  0  0  0  0  0  0  0999 V2000
   -2.1311    1.6338    2.3821 N   0  0  0  0  0  1  0  0  0  0  0  0
   -2.2099    0.6873    1.3185 C   0  0  0  0  0  0  0  0  0  0  0  0
   -3.0542   -0.4215    1.4524 C   0  0  0  0  0  0  0  0  0  0  0  0
   -3.1396   -1.3693    0.4299 C   0  0  0  0  0  0  0  0  0  0  0  0
   -2.3815   -1.2143   -0.7321 C   0  0  0  0  0  0  0  0  0  0  0  0
   -1.5381   -0.1098   -0.8760 C   0  0  0  0  0  0  0  0  0  0  0  0
   -1.4465    0.8547    0.1434 C   0  0  0  0  0  0  0  0  0  0  0  0
   -0.4865    2.0123   -0.0103 C   0  0  0  0  0  0  0  0  0  0  0  0
    0.8457    1.7500    0.7068 C   0  0  0  0  0  0  0  0  0  0  0  0
    1.5826    0.5801    0.1060 C   0  0  0  0  0  0  0  0  0  0  0  0
    2.3476    0.7490   -1.0596 C   0  0  0  0  0  0  0  0  0  0  0  0
    2.9885   -0.3465   -1.6459 C   0  0  0  0  0  0  0  0  0  0  0  0
    2.8624   -1.6179   -1.0798 C   0  0  0  0  0  0  0  0  0  0  0  0
    2.0942   -1.7970    0.0751 C   0  0  0  0  0  0  0  0  0  0  0  0
    1.9042   -3.5378    0.8365 Br  0  0  0  0  0  0  0  0  0  0  0  0
    1.4558   -0.7020    0.6670 C   0  0  0  0  0  0  0  0  0  0  0  0
   -3.6421   -0.5517    2.3524 H   0  0  0  0  0  0  0  0  0  0  0  0
   -3.7915   -2.2263    0.5398 H   0  0  0  0  0  0  0  0  0  0  0  0
   -2.4439   -1.9530   -1.5206 H   0  0  0  0  0  0  0  0  0  0  0  0
   -0.9463   -0.0126   -1.7780 H   0  0  0  0  0  0  0  0  0  0  0  0
   -0.9455    2.9349    0.4056 H   0  0  0  0  0  0  0  0  0  0  0  0
   -0.2949    2.2177   -1.0867 H   0  0  0  0  0  0  0  0  0  0  0  0
    1.4789    2.6606    0.6306 H   0  0  0  0  0  0  0  0  0  0  0  0
    0.6644    1.5784    1.7904 H   0  0  0  0  0  0  0  0  0  0  0  0
    2.4416    1.7267   -1.5160 H   0  0  0  0  0  0  0  0  0  0  0  0
    3.5780   -0.2108   -2.5434 H   0  0  0  0  0  0  0  0  0  0  0  0
    3.3567   -2.4631   -1.5413 H   0  0  0  0  0  0  0  0  0  0  0  0
    0.8510   -0.8518    1.5531 H   0  0  0  0  0  0  0  0  0  0  0  0
  1  2  1  0
  2  3  2  0
  3  4  1  0
  4  5  2  0
  5  6  1  0
  6  7  2  0
  7  8  1  0
  8  9  1  0
  9 10  1  0
 10 11  2  0
 11 12  1  0
 12 13  2  0
 13 14  1  0
 14 15  1  0
 14 16  2  0
  7  2  1  0
 16 10  1  0
  3 17  1  0
  4 18  1  0
  5 19  1  0
  6 20  1  0
  8 21  1  0
  8 22  1  0
  9 23  1  0
  9 24  1  0
 11 25  1  0
 12 26  1  0
 13 27  1  0
 16 28  1  0
M  RAD  1   1   3
M  END
$$$$
