
     RDKit          3D

 28 29  0  0  0  0  0  0  0  0999 V2000
    2.7627   -1.8181    1.3954 N   0  0  0  0  0  1  0  0  0  0  0  0
    2.5097   -0.6678    0.5916 C   0  0  0  0  0  0  0  0  0  0  0  0
    3.2804    0.4846    0.7870 C   0  0  0  0  0  0  0  0  0  0  0  0
    3.0439    1.6284    0.0208 C   0  0  0  0  0  0  0  0  0  0  0  0
    2.0355    1.6268   -0.9447 C   0  0  0  0  0  0  0  0  0  0  0  0
    1.2628    0.4809   -1.1486 C   0  0  0  0  0  0  0  0  0  0  0  0
    1.4939   -0.6793   -0.3880 C   0  0  0  0  0  0  0  0  0  0  0  0
    0.6098   -1.8893   -0.5873 C   0  0  0  0  0  0  0  0  0  0  0  0
   -0.5195   -1.9503    0.4513 C   0  0  0  0  0  0  0  0  0  0  0  0
   -1.4625   -0.7815    0.3205 C   0  0  0  0  0  0  0  0  0  0  0  0
   -2.4775   -0.7966   -0.6501 C   0  0  0  0  0  0  0  0  0  0  0  0
   -3.3189    0.3089   -0.8060 C   0  0  0  0  0  0  0  0  0  0  0  0
   -3.1472    1.4395   -0.0026 C   0  0  0  0  0  0  0  0  0  0  0  0
   -2.1325    1.4671    0.9594 C   0  0  0  0  0  0  0  0  0  0  0  0
   -1.8840    3.0200    2.0425 Br  0  0  0  0  0  0  0  0  0  0  0  0
   -1.2921    0.3606    1.1214 C   0  0  0  0  0  0  0  0  0  0  0  0
    4.0615    0.4957    1.5369 H   0  0  0  0  0  0  0  0  0  0  0  0
    3.6405    2.5176    0.1780 H   0  0  0  0  0  0  0  0  0  0  0  0
    1.8491    2.5160   -1.5328 H   0  0  0  0  0  0  0  0  0  0  0  0
    0.4752    0.5016   -1.8919 H   0  0  0  0  0  0  0  0  0  0  0  0
    0.1737   -1.8871   -1.6107 H   0  0  0  0  0  0  0  0  0  0  0  0
    1.2212   -2.8141   -0.5116 H   0  0  0  0  0  0  0  0  0  0  0  0
   -0.0890   -1.9879    1.4760 H   0  0  0  0  0  0  0  0  0  0  0  0
   -1.0860   -2.8963    0.3093 H   0  0  0  0  0  0  0  0  0  0  0  0
   -2.6119   -1.6612   -1.2884 H   0  0  0  0  0  0  0  0  0  0  0  0
   -4.1005    0.2918   -1.5545 H   0  0  0  0  0  0  0  0  0  0  0  0
   -3.7985    2.2943   -0.1317 H   0  0  0  0  0  0  0  0  0  0  0  0
   -0.4997    0.3957    1.8589 H   0  0  0  0  0  0  0  0  0  0  0  0
  1  2  1  0
  2  3  2  0
  3  4  1  0
  4  5  2  0
  5  6  1  0
  6  7  2  0
  7  8  1  0
  8  9  1  0
  9 10  1  0
 10 11  2  0
 11 12  1  0
 12 13  2  0
 13 14  1  0
 14 15  1  0
 14 16  2  0
  7  2  1  0
 16 10  1  0
  3 17  1  0
  4 18  1  0
  5 19  1  0
  6 20  1  0
  8 21  1  0
  8 22  1  0
  9 23  1  0
  9 24  1  0
 11 25  1  0
 12 26  1  0
 13 27  1  0
 16 28  1  0
M  RAD  1   1   3
M  END
$$$$
