
     RDKit          3D

 28 29  0  0  0  0  0  0  0  0999 V2000
   -2.0973    1.6336    1.7743 N   0  0  0  0  0  1  0  0  0  0  0  0
   -2.6771    0.6784    0.8883 C   0  0  0  0  0  0  0  0  0  0  0  0
   -4.0164    0.3097    1.0636 C   0  0  0  0  0  0  0  0  0  0  0  0
   -4.6030   -0.6353    0.2185 C   0  0  0  0  0  0  0  0  0  0  0  0
   -3.8530   -1.2203   -0.8036 C   0  0  0  0  0  0  0  0  0  0  0  0
   -2.5156   -0.8585   -0.9866 C   0  0  0  0  0  0  0  0  0  0  0  0
   -1.9173    0.1024   -0.1526 C   0  0  0  0  0  0  0  0  0  0  0  0
   -0.4628    0.4531   -0.3482 C   0  0  0  0  0  0  0  0  0  0  0  0
    0.4281   -0.4320    0.5286 C   0  0  0  0  0  0  0  0  0  0  0  0
    1.8783   -0.0796    0.3346 C   0  0  0  0  0  0  0  0  0  0  0  0
    2.4766    0.9172    1.1232 C   0  0  0  0  0  0  0  0  0  0  0  0
    3.8147    1.2671    0.9195 C   0  0  0  0  0  0  0  0  0  0  0  0
    4.5612    0.6330   -0.0774 C   0  0  0  0  0  0  0  0  0  0  0  0
    3.9694   -0.3505   -0.8766 C   0  0  0  0  0  0  0  0  0  0  0  0
    4.9869   -1.2073   -2.2469 Br  0  0  0  0  0  0  0  0  0  0  0  0
    2.6302   -0.7031   -0.6751 C   0  0  0  0  0  0  0  0  0  0  0  0
   -4.6029    0.7529    1.8586 H   0  0  0  0  0  0  0  0  0  0  0  0
   -5.6383   -0.9180    0.3592 H   0  0  0  0  0  0  0  0  0  0  0  0
   -4.3072   -1.9576   -1.4529 H   0  0  0  0  0  0  0  0  0  0  0  0
   -1.9452   -1.3288   -1.7781 H   0  0  0  0  0  0  0  0  0  0  0  0
   -0.1827    0.3191   -1.4167 H   0  0  0  0  0  0  0  0  0  0  0  0
   -0.2916    1.5240   -0.1029 H   0  0  0  0  0  0  0  0  0  0  0  0
    0.2630   -1.5016    0.2706 H   0  0  0  0  0  0  0  0  0  0  0  0
    0.1505   -0.3041    1.5981 H   0  0  0  0  0  0  0  0  0  0  0  0
    1.9065    1.4230    1.8927 H   0  0  0  0  0  0  0  0  0  0  0  0
    4.2724    2.0328    1.5325 H   0  0  0  0  0  0  0  0  0  0  0  0
    5.5964    0.9093   -0.2312 H   0  0  0  0  0  0  0  0  0  0  0  0
    2.1760   -1.4589   -1.3042 H   0  0  0  0  0  0  0  0  0  0  0  0
  1  2  1  0
  2  3  2  0
  3  4  1  0
  4  5  2  0
  5  6  1  0
  6  7  2  0
  7  8  1  0
  8  9  1  0
  9 10  1  0
 10 11  2  0
 11 12  1  0
 12 13  2  0
 13 14  1  0
 14 15  1  0
 14 16  2  0
  7  2  1  0
 16 10  1  0
  3 17  1  0
  4 18  1  0
  5 19  1  0
  6 20  1  0
  8 21  1  0
  8 22  1  0
  9 23  1  0
  9 24  1  0
 11 25  1  0
 12 26  1  0
 13 27  1  0
 16 28  1  0
M  RAD  1   1   3
M  END
$$$$
