
     RDKit          3D

 28 29  0  0  0  0  0  0  0  0999 V2000
   -2.0738    2.3735    0.2101 N   0  0  0  0  0  1  0  0  0  0  0  0
   -2.6640    1.0964   -0.0232 C   0  0  0  0  0  0  0  0  0  0  0  0
   -4.0393    0.9323    0.1820 C   0  0  0  0  0  0  0  0  0  0  0  0
   -4.6385   -0.3125   -0.0248 C   0  0  0  0  0  0  0  0  0  0  0  0
   -3.8657   -1.4012   -0.4333 C   0  0  0  0  0  0  0  0  0  0  0  0
   -2.4923   -1.2471   -0.6409 C   0  0  0  0  0  0  0  0  0  0  0  0
   -1.8793    0.0038   -0.4510 C   0  0  0  0  0  0  0  0  0  0  0  0
   -0.3896    0.1386   -0.6495 C   0  0  0  0  0  0  0  0  0  0  0  0
    0.3536   -0.0950    0.6692 C   0  0  0  0  0  0  0  0  0  0  0  0
    1.8391    0.0422    0.4706 C   0  0  0  0  0  0  0  0  0  0  0  0
    2.4585    1.2960    0.6030 C   0  0  0  0  0  0  0  0  0  0  0  0
    3.8332    1.4283    0.3854 C   0  0  0  0  0  0  0  0  0  0  0  0
    4.5964    0.3145    0.0251 C   0  0  0  0  0  0  0  0  0  0  0  0
    3.9853   -0.9349   -0.1227 C   0  0  0  0  0  0  0  0  0  0  0  0
    5.0271   -2.4539   -0.6273 Br  0  0  0  0  0  0  0  0  0  0  0  0
    2.6095   -1.0708    0.0945 C   0  0  0  0  0  0  0  0  0  0  0  0
   -4.6445    1.7696    0.5062 H   0  0  0  0  0  0  0  0  0  0  0  0
   -5.7018   -0.4344    0.1367 H   0  0  0  0  0  0  0  0  0  0  0  0
   -4.3305   -2.3667   -0.5860 H   0  0  0  0  0  0  0  0  0  0  0  0
   -1.9057   -2.1041   -0.9485 H   0  0  0  0  0  0  0  0  0  0  0  0
   -0.0416   -0.5981   -1.4073 H   0  0  0  0  0  0  0  0  0  0  0  0
   -0.1469    1.1480   -1.0475 H   0  0  0  0  0  0  0  0  0  0  0  0
    0.0076    0.6374    1.4316 H   0  0  0  0  0  0  0  0  0  0  0  0
    0.1180   -1.1109    1.0569 H   0  0  0  0  0  0  0  0  0  0  0  0
    1.8769    2.1691    0.8723 H   0  0  0  0  0  0  0  0  0  0  0  0
    4.3066    2.3958    0.4927 H   0  0  0  0  0  0  0  0  0  0  0  0
    5.6601    0.4236   -0.1433 H   0  0  0  0  0  0  0  0  0  0  0  0
    2.1416   -2.0395   -0.0312 H   0  0  0  0  0  0  0  0  0  0  0  0
  1  2  1  0
  2  3  2  0
  3  4  1  0
  4  5  2  0
  5  6  1  0
  6  7  2  0
  7  8  1  0
  8  9  1  0
  9 10  1  0
 10 11  2  0
 11 12  1  0
 12 13  2  0
 13 14  1  0
 14 15  1  0
 14 16  2  0
  7  2  1  0
 16 10  1  0
  3 17  1  0
  4 18  1  0
  5 19  1  0
  6 20  1  0
  8 21  1  0
  8 22  1  0
  9 23  1  0
  9 24  1  0
 11 25  1  0
 12 26  1  0
 13 27  1  0
 16 28  1  0
M  RAD  1   1   3
M  END
$$$$
