
     RDKit          3D

 28 29  0  0  0  0  0  0  0  0999 V2000
    2.7749   -1.8164   -1.3730 N   0  0  0  0  0  1  0  0  0  0  0  0
    2.5157   -0.7048   -0.5184 C   0  0  0  0  0  0  0  0  0  0  0  0
    3.3237    0.4345   -0.6162 C   0  0  0  0  0  0  0  0  0  0  0  0
    3.0824    1.5412    0.2012 C   0  0  0  0  0  0  0  0  0  0  0  0
    2.0321    1.5156    1.1206 C   0  0  0  0  0  0  0  0  0  0  0  0
    1.2220    0.3823    1.2271 C   0  0  0  0  0  0  0  0  0  0  0  0
    1.4571   -0.7409    0.4141 C   0  0  0  0  0  0  0  0  0  0  0  0
    0.5343   -1.9347    0.5077 C   0  0  0  0  0  0  0  0  0  0  0  0
   -0.5485   -1.9077   -0.5807 C   0  0  0  0  0  0  0  0  0  0  0  0
   -1.4662   -0.7217   -0.4263 C   0  0  0  0  0  0  0  0  0  0  0  0
   -2.5237   -0.7610    0.4971 C   0  0  0  0  0  0  0  0  0  0  0  0
   -3.3426    0.3576    0.6774 C   0  0  0  0  0  0  0  0  0  0  0  0
   -3.1063    1.5248   -0.0539 C   0  0  0  0  0  0  0  0  0  0  0  0
   -2.0492    1.5761   -0.9682 C   0  0  0  0  0  0  0  0  0  0  0  0
   -1.7128    3.1778   -1.9518 Br  0  0  0  0  0  0  0  0  0  0  0  0
   -1.2310    0.4569   -1.1546 C   0  0  0  0  0  0  0  0  0  0  0  0
    4.1375    0.4644   -1.3298 H   0  0  0  0  0  0  0  0  0  0  0  0
    3.7080    2.4207    0.1195 H   0  0  0  0  0  0  0  0  0  0  0  0
    1.8424    2.3765    1.7485 H   0  0  0  0  0  0  0  0  0  0  0  0
    0.4027    0.3849    1.9356 H   0  0  0  0  0  0  0  0  0  0  0  0
    1.1247   -2.8708    0.4074 H   0  0  0  0  0  0  0  0  0  0  0  0
    0.0530   -1.9758    1.5098 H   0  0  0  0  0  0  0  0  0  0  0  0
   -0.0737   -1.9018   -1.5863 H   0  0  0  0  0  0  0  0  0  0  0  0
   -1.1448   -2.8437   -0.5160 H   0  0  0  0  0  0  0  0  0  0  0  0
   -2.7086   -1.6547    1.0801 H   0  0  0  0  0  0  0  0  0  0  0  0
   -4.1571    0.3218    1.3893 H   0  0  0  0  0  0  0  0  0  0  0  0
   -3.7406    2.3893    0.0939 H   0  0  0  0  0  0  0  0  0  0  0  0
   -0.4057    0.5097   -1.8541 H   0  0  0  0  0  0  0  0  0  0  0  0
  1  2  1  0
  2  3  2  0
  3  4  1  0
  4  5  2  0
  5  6  1  0
  6  7  2  0
  7  8  1  0
  8  9  1  0
  9 10  1  0
 10 11  2  0
 11 12  1  0
 12 13  2  0
 13 14  1  0
 14 15  1  0
 14 16  2  0
  7  2  1  0
 16 10  1  0
  3 17  1  0
  4 18  1  0
  5 19  1  0
  6 20  1  0
  8 21  1  0
  8 22  1  0
  9 23  1  0
  9 24  1  0
 11 25  1  0
 12 26  1  0
 13 27  1  0
 16 28  1  0
M  RAD  1   1   3
M  END
$$$$
