
     RDKit          3D

 28 29  0  0  0  0  0  0  0  0999 V2000
   -0.2386    0.8090    2.0000 N   0  0  0  0  0  1  0  0  0  0  0  0
   -1.2812    0.6149    1.0467 C   0  0  0  0  0  0  0  0  0  0  0  0
   -2.1152    1.6917    0.7230 C   0  0  0  0  0  0  0  0  0  0  0  0
   -3.1360    1.5345   -0.2171 C   0  0  0  0  0  0  0  0  0  0  0  0
   -3.3280    0.3005   -0.8408 C   0  0  0  0  0  0  0  0  0  0  0  0
   -2.5002   -0.7801   -0.5256 C   0  0  0  0  0  0  0  0  0  0  0  0
   -1.4731   -0.6384    0.4238 C   0  0  0  0  0  0  0  0  0  0  0  0
   -0.5615   -1.8118    0.7054 C   0  0  0  0  0  0  0  0  0  0  0  0
    0.5165   -1.9700   -0.3764 C   0  0  0  0  0  0  0  0  0  0  0  0
    1.4619   -0.7964   -0.4006 C   0  0  0  0  0  0  0  0  0  0  0  0
    2.5371   -0.7354    0.5010 C   0  0  0  0  0  0  0  0  0  0  0  0
    3.3833    0.3774    0.5130 C   0  0  0  0  0  0  0  0  0  0  0  0
    3.1572    1.4396   -0.3666 C   0  0  0  0  0  0  0  0  0  0  0  0
    2.0833    1.3913   -1.2612 C   0  0  0  0  0  0  0  0  0  0  0  0
    1.7615    2.8520   -2.4483 Br  0  0  0  0  0  0  0  0  0  0  0  0
    1.2377    0.2771   -1.2792 C   0  0  0  0  0  0  0  0  0  0  0  0
   -1.9698    2.6539    1.1980 H   0  0  0  0  0  0  0  0  0  0  0  0
   -3.7768    2.3710   -0.4647 H   0  0  0  0  0  0  0  0  0  0  0  0
   -4.1164    0.1819   -1.5727 H   0  0  0  0  0  0  0  0  0  0  0  0
   -2.6550   -1.7278   -1.0267 H   0  0  0  0  0  0  0  0  0  0  0  0
   -1.1689   -2.7425    0.7383 H   0  0  0  0  0  0  0  0  0  0  0  0
   -0.0828   -1.7196    1.7040 H   0  0  0  0  0  0  0  0  0  0  0  0
    1.0912   -2.9005   -0.1762 H   0  0  0  0  0  0  0  0  0  0  0  0
    0.0360   -2.1008   -1.3710 H   0  0  0  0  0  0  0  0  0  0  0  0
    2.7143   -1.5454    1.1976 H   0  0  0  0  0  0  0  0  0  0  0  0
    4.2110    0.4193    1.2091 H   0  0  0  0  0  0  0  0  0  0  0  0
    3.8126    2.3008   -0.3489 H   0  0  0  0  0  0  0  0  0  0  0  0
    0.4001    0.2538   -1.9655 H   0  0  0  0  0  0  0  0  0  0  0  0
  1  2  1  0
  2  3  2  0
  3  4  1  0
  4  5  2  0
  5  6  1  0
  6  7  2  0
  7  8  1  0
  8  9  1  0
  9 10  1  0
 10 11  2  0
 11 12  1  0
 12 13  2  0
 13 14  1  0
 14 15  1  0
 14 16  2  0
  7  2  1  0
 16 10  1  0
  3 17  1  0
  4 18  1  0
  5 19  1  0
  6 20  1  0
  8 21  1  0
  8 22  1  0
  9 23  1  0
  9 24  1  0
 11 25  1  0
 12 26  1  0
 13 27  1  0
 16 28  1  0
M  RAD  1   1   3
M  END
$$$$
