
     RDKit          3D

 28 29  0  0  0  0  0  0  0  0999 V2000
    2.7520   -1.3556   -1.9679 N   0  0  0  0  0  1  0  0  0  0  0  0
    2.5045   -0.4647   -0.8824 C   0  0  0  0  0  0  0  0  0  0  0  0
    3.2672    0.7041   -0.7710 C   0  0  0  0  0  0  0  0  0  0  0  0
    3.0357    1.5990    0.2763 C   0  0  0  0  0  0  0  0  0  0  0  0
    2.0405    1.3308    1.2179 C   0  0  0  0  0  0  0  0  0  0  0  0
    1.2759    0.1659    1.1165 C   0  0  0  0  0  0  0  0  0  0  0  0
    1.5021   -0.7463    0.0702 C   0  0  0  0  0  0  0  0  0  0  0  0
    0.6264   -1.9726   -0.0515 C   0  0  0  0  0  0  0  0  0  0  0  0
   -0.5165   -1.7623   -1.0552 C   0  0  0  0  0  0  0  0  0  0  0  0
   -1.4631   -0.6789   -0.6049 C   0  0  0  0  0  0  0  0  0  0  0  0
   -2.4648   -0.9616    0.3380 C   0  0  0  0  0  0  0  0  0  0  0  0
   -3.3091    0.0550    0.7943 C   0  0  0  0  0  0  0  0  0  0  0  0
   -3.1535    1.3608    0.3211 C   0  0  0  0  0  0  0  0  0  0  0  0
   -2.1520    1.6532   -0.6103 C   0  0  0  0  0  0  0  0  0  0  0  0
   -1.9254    3.4414   -1.2406 Br  0  0  0  0  0  0  0  0  0  0  0  0
   -1.3088    0.6373   -1.0726 C   0  0  0  0  0  0  0  0  0  0  0  0
    4.0380    0.9220   -1.4997 H   0  0  0  0  0  0  0  0  0  0  0  0
    3.6260    2.5027    0.3560 H   0  0  0  0  0  0  0  0  0  0  0  0
    1.8579    2.0285    2.0249 H   0  0  0  0  0  0  0  0  0  0  0  0
    0.4984   -0.0195    1.8474 H   0  0  0  0  0  0  0  0  0  0  0  0
    0.2041   -2.2481    0.9401 H   0  0  0  0  0  0  0  0  0  0  0  0
    1.2411   -2.8384   -0.3794 H   0  0  0  0  0  0  0  0  0  0  0  0
   -1.0766   -2.7164   -1.1651 H   0  0  0  0  0  0  0  0  0  0  0  0
   -0.0997   -1.5208   -2.0574 H   0  0  0  0  0  0  0  0  0  0  0  0
   -2.5865   -1.9665    0.7229 H   0  0  0  0  0  0  0  0  0  0  0  0
   -4.0804   -0.1683    1.5200 H   0  0  0  0  0  0  0  0  0  0  0  0
   -3.8069    2.1445    0.6821 H   0  0  0  0  0  0  0  0  0  0  0  0
   -0.5266    0.8750   -1.7830 H   0  0  0  0  0  0  0  0  0  0  0  0
  1  2  1  0
  2  3  2  0
  3  4  1  0
  4  5  2  0
  5  6  1  0
  6  7  2  0
  7  8  1  0
  8  9  1  0
  9 10  1  0
 10 11  2  0
 11 12  1  0
 12 13  2  0
 13 14  1  0
 14 15  1  0
 14 16  2  0
  7  2  1  0
 16 10  1  0
  3 17  1  0
  4 18  1  0
  5 19  1  0
  6 20  1  0
  8 21  1  0
  8 22  1  0
  9 23  1  0
  9 24  1  0
 11 25  1  0
 12 26  1  0
 13 27  1  0
 16 28  1  0
M  RAD  1   1   3
M  END
$$$$
