
     RDKit          3D

 28 29  0  0  0  0  0  0  0  0999 V2000
   -2.2249    1.5342    1.6353 N   0  0  0  0  0  1  0  0  0  0  0  0
   -2.7308    0.5538    0.7318 C   0  0  0  0  0  0  0  0  0  0  0  0
   -4.0908    0.5693    0.3991 C   0  0  0  0  0  0  0  0  0  0  0  0
   -4.6077   -0.3708   -0.4954 C   0  0  0  0  0  0  0  0  0  0  0  0
   -3.7673   -1.3287   -1.0660 C   0  0  0  0  0  0  0  0  0  0  0  0
   -2.4086   -1.3523   -0.7400 C   0  0  0  0  0  0  0  0  0  0  0  0
   -1.8785   -0.4215    0.1705 C   0  0  0  0  0  0  0  0  0  0  0  0
   -0.4023   -0.4454    0.4823 C   0  0  0  0  0  0  0  0  0  0  0  0
    0.3637    0.4862   -0.4618 C   0  0  0  0  0  0  0  0  0  0  0  0
    1.8354    0.4635   -0.1482 C   0  0  0  0  0  0  0  0  0  0  0  0
    2.3714    1.3507    0.7999 C   0  0  0  0  0  0  0  0  0  0  0  0
    3.7328    1.3061    1.1148 C   0  0  0  0  0  0  0  0  0  0  0  0
    4.5656    0.3709    0.4944 C   0  0  0  0  0  0  0  0  0  0  0  0
    4.0375   -0.5256   -0.4403 C   0  0  0  0  0  0  0  0  0  0  0  0
    5.1742   -1.8115   -1.2782 Br  0  0  0  0  0  0  0  0  0  0  0  0
    2.6752   -0.4835   -0.7579 C   0  0  0  0  0  0  0  0  0  0  0  0
   -4.7479    1.3136    0.8313 H   0  0  0  0  0  0  0  0  0  0  0  0
   -5.6595   -0.3536   -0.7504 H   0  0  0  0  0  0  0  0  0  0  0  0
   -4.1682   -2.0518   -1.7645 H   0  0  0  0  0  0  0  0  0  0  0  0
   -1.7686   -2.0960   -1.1988 H   0  0  0  0  0  0  0  0  0  0  0  0
   -0.0115   -1.4821    0.3786 H   0  0  0  0  0  0  0  0  0  0  0  0
   -0.2296   -0.1409    1.5376 H   0  0  0  0  0  0  0  0  0  0  0  0
   -0.0250    1.5240   -0.3643 H   0  0  0  0  0  0  0  0  0  0  0  0
    0.1984    0.1698   -1.5155 H   0  0  0  0  0  0  0  0  0  0  0  0
    1.7351    2.0739    1.2950 H   0  0  0  0  0  0  0  0  0  0  0  0
    4.1418    1.9946    1.8429 H   0  0  0  0  0  0  0  0  0  0  0  0
    5.6185    0.3404    0.7435 H   0  0  0  0  0  0  0  0  0  0  0  0
    2.2717   -1.1872   -1.4756 H   0  0  0  0  0  0  0  0  0  0  0  0
  1  2  1  0
  2  3  2  0
  3  4  1  0
  4  5  2  0
  5  6  1  0
  6  7  2  0
  7  8  1  0
  8  9  1  0
  9 10  1  0
 10 11  2  0
 11 12  1  0
 12 13  2  0
 13 14  1  0
 14 15  1  0
 14 16  2  0
  7  2  1  0
 16 10  1  0
  3 17  1  0
  4 18  1  0
  5 19  1  0
  6 20  1  0
  8 21  1  0
  8 22  1  0
  9 23  1  0
  9 24  1  0
 11 25  1  0
 12 26  1  0
 13 27  1  0
 16 28  1  0
M  RAD  1   1   3
M  END
$$$$
