
     RDKit          3D

 28 29  0  0  0  0  0  0  0  0999 V2000
   -1.9643    2.9723    0.4381 N   0  0  0  0  0  1  0  0  0  0  0  0
   -2.1150    1.5544    0.4526 C   0  0  0  0  0  0  0  0  0  0  0  0
   -2.9474    0.9661    1.4124 C   0  0  0  0  0  0  0  0  0  0  0  0
   -3.1019   -0.4216    1.4551 C   0  0  0  0  0  0  0  0  0  0  0  0
   -2.4252   -1.2289    0.5390 C   0  0  0  0  0  0  0  0  0  0  0  0
   -1.5943   -0.6508   -0.4240 C   0  0  0  0  0  0  0  0  0  0  0  0
   -1.4339    0.7452   -0.4817 C   0  0  0  0  0  0  0  0  0  0  0  0
   -0.4874    1.3451   -1.4964 C   0  0  0  0  0  0  0  0  0  0  0  0
    0.8909    1.6417   -0.8880 C   0  0  0  0  0  0  0  0  0  0  0  0
    1.5857    0.3817   -0.4383 C   0  0  0  0  0  0  0  0  0  0  0  0
    2.2692   -0.4195   -1.3676 C   0  0  0  0  0  0  0  0  0  0  0  0
    2.8691   -1.6146   -0.9598 C   0  0  0  0  0  0  0  0  0  0  0  0
    2.7830   -2.0229    0.3740 C   0  0  0  0  0  0  0  0  0  0  0  0
    2.0957   -1.2363    1.3039 C   0  0  0  0  0  0  0  0  0  0  0  0
    1.9594   -1.8048    3.1218 Br  0  0  0  0  0  0  0  0  0  0  0  0
    1.4985   -0.0375    0.9001 C   0  0  0  0  0  0  0  0  0  0  0  0
   -3.4723    1.5846    2.1296 H   0  0  0  0  0  0  0  0  0  0  0  0
   -3.7441   -0.8716    2.2011 H   0  0  0  0  0  0  0  0  0  0  0  0
   -2.5408   -2.3043    0.5778 H   0  0  0  0  0  0  0  0  0  0  0  0
   -1.0656   -1.2929   -1.1179 H   0  0  0  0  0  0  0  0  0  0  0  0
   -0.9176    2.2891   -1.8948 H   0  0  0  0  0  0  0  0  0  0  0  0
   -0.3701    0.6640   -2.3681 H   0  0  0  0  0  0  0  0  0  0  0  0
    1.5167    2.1532   -1.6513 H   0  0  0  0  0  0  0  0  0  0  0  0
    0.7841    2.3499   -0.0374 H   0  0  0  0  0  0  0  0  0  0  0  0
    2.3310   -0.1211   -2.4068 H   0  0  0  0  0  0  0  0  0  0  0  0
    3.3958   -2.2278   -1.6795 H   0  0  0  0  0  0  0  0  0  0  0  0
    3.2451   -2.9518    0.6825 H   0  0  0  0  0  0  0  0  0  0  0  0
    0.9559    0.5586    1.6236 H   0  0  0  0  0  0  0  0  0  0  0  0
  1  2  1  0
  2  3  2  0
  3  4  1  0
  4  5  2  0
  5  6  1  0
  6  7  2  0
  7  8  1  0
  8  9  1  0
  9 10  1  0
 10 11  2  0
 11 12  1  0
 12 13  2  0
 13 14  1  0
 14 15  1  0
 14 16  2  0
  7  2  1  0
 16 10  1  0
  3 17  1  0
  4 18  1  0
  5 19  1  0
  6 20  1  0
  8 21  1  0
  8 22  1  0
  9 23  1  0
  9 24  1  0
 11 25  1  0
 12 26  1  0
 13 27  1  0
 16 28  1  0
M  RAD  1   1   3
M  END
$$$$
