
     RDKit          3D

 28 29  0  0  0  0  0  0  0  0999 V2000
    3.0034   -1.7128    0.9915 N   0  0  0  0  0  1  0  0  0  0  0  0
    2.5949   -0.5357    0.2981 C   0  0  0  0  0  0  0  0  0  0  0  0
    3.3138    0.6511    0.4853 C   0  0  0  0  0  0  0  0  0  0  0  0
    2.9262    1.8205   -0.1730 C   0  0  0  0  0  0  0  0  0  0  0  0
    1.8179    1.8104   -1.0219 C   0  0  0  0  0  0  0  0  0  0  0  0
    1.0958    0.6304   -1.2170 C   0  0  0  0  0  0  0  0  0  0  0  0
    1.4783   -0.5554   -0.5646 C   0  0  0  0  0  0  0  0  0  0  0  0
    0.6500   -1.8068   -0.7474 C   0  0  0  0  0  0  0  0  0  0  0  0
   -0.3503   -2.0037    0.4008 C   0  0  0  0  0  0  0  0  0  0  0  0
   -1.3690   -0.8935    0.4507 C   0  0  0  0  0  0  0  0  0  0  0  0
   -2.4837   -0.9173   -0.4033 C   0  0  0  0  0  0  0  0  0  0  0  0
   -3.4006    0.1380   -0.3935 C   0  0  0  0  0  0  0  0  0  0  0  0
   -3.2067    1.2274    0.4601 C   0  0  0  0  0  0  0  0  0  0  0  0
   -2.0940    1.2641    1.3066 C   0  0  0  0  0  0  0  0  0  0  0  0
   -1.8173    2.7625    2.4574 Br  0  0  0  0  0  0  0  0  0  0  0  0
   -1.1773    0.2074    1.3028 C   0  0  0  0  0  0  0  0  0  0  0  0
    4.1719    0.6687    1.1456 H   0  0  0  0  0  0  0  0  0  0  0  0
    3.4835    2.7361   -0.0223 H   0  0  0  0  0  0  0  0  0  0  0  0
    1.5150    2.7190   -1.5260 H   0  0  0  0  0  0  0  0  0  0  0  0
    0.2301    0.6438   -1.8678 H   0  0  0  0  0  0  0  0  0  0  0  0
    1.3193   -2.6923   -0.7999 H   0  0  0  0  0  0  0  0  0  0  0  0
    0.1026   -1.7722   -1.7152 H   0  0  0  0  0  0  0  0  0  0  0  0
   -0.8727   -2.9746    0.2582 H   0  0  0  0  0  0  0  0  0  0  0  0
    0.1936   -2.0741    1.3682 H   0  0  0  0  0  0  0  0  0  0  0  0
   -2.6378   -1.7492   -1.0795 H   0  0  0  0  0  0  0  0  0  0  0  0
   -4.2588    0.1142   -1.0526 H   0  0  0  0  0  0  0  0  0  0  0  0
   -3.9173    2.0438    0.4594 H   0  0  0  0  0  0  0  0  0  0  0  0
   -0.3107    0.2504    1.9510 H   0  0  0  0  0  0  0  0  0  0  0  0
  1  2  1  0
  2  3  2  0
  3  4  1  0
  4  5  2  0
  5  6  1  0
  6  7  2  0
  7  8  1  0
  8  9  1  0
  9 10  1  0
 10 11  2  0
 11 12  1  0
 12 13  2  0
 13 14  1  0
 14 15  1  0
 14 16  2  0
  7  2  1  0
 16 10  1  0
  3 17  1  0
  4 18  1  0
  5 19  1  0
  6 20  1  0
  8 21  1  0
  8 22  1  0
  9 23  1  0
  9 24  1  0
 11 25  1  0
 12 26  1  0
 13 27  1  0
 16 28  1  0
M  RAD  1   1   3
M  END
$$$$
