
     RDKit          3D

 28 29  0  0  0  0  0  0  0  0999 V2000
   -1.2098    0.7302    1.7626 N   0  0  0  0  0  1  0  0  0  0  0  0
   -1.6559   -0.1643    0.7456 C   0  0  0  0  0  0  0  0  0  0  0  0
   -2.1874   -1.4051    1.1170 C   0  0  0  0  0  0  0  0  0  0  0  0
   -2.6197   -2.3068    0.1421 C   0  0  0  0  0  0  0  0  0  0  0  0
   -2.5215   -1.9745   -1.2102 C   0  0  0  0  0  0  0  0  0  0  0  0
   -1.9913   -0.7392   -1.5913 C   0  0  0  0  0  0  0  0  0  0  0  0
   -1.5586    0.1812   -0.6208 C   0  0  0  0  0  0  0  0  0  0  0  0
   -0.9422    1.4883   -1.0663 C   0  0  0  0  0  0  0  0  0  0  0  0
    0.5222    1.3129   -1.4933 C   0  0  0  0  0  0  0  0  0  0  0  0
    1.3959    0.8951   -0.3385 C   0  0  0  0  0  0  0  0  0  0  0  0
    1.8913    1.8562    0.5578 C   0  0  0  0  0  0  0  0  0  0  0  0
    2.6590    1.4630    1.6581 C   0  0  0  0  0  0  0  0  0  0  0  0
    2.9291    0.1093    1.8767 C   0  0  0  0  0  0  0  0  0  0  0  0
    2.4319   -0.8551    0.9944 C   0  0  0  0  0  0  0  0  0  0  0  0
    2.7829   -2.7063    1.3047 Br  0  0  0  0  0  0  0  0  0  0  0  0
    1.6677   -0.4646   -0.1103 C   0  0  0  0  0  0  0  0  0  0  0  0
   -2.2621   -1.6731    2.1635 H   0  0  0  0  0  0  0  0  0  0  0  0
   -3.0282   -3.2653    0.4350 H   0  0  0  0  0  0  0  0  0  0  0  0
   -2.8524   -2.6766   -1.9645 H   0  0  0  0  0  0  0  0  0  0  0  0
   -1.9115   -0.5012   -2.6449 H   0  0  0  0  0  0  0  0  0  0  0  0
   -1.5180    1.8840   -1.9312 H   0  0  0  0  0  0  0  0  0  0  0  0
   -1.0127    2.2594   -0.2693 H   0  0  0  0  0  0  0  0  0  0  0  0
    0.5879    0.5690   -2.3176 H   0  0  0  0  0  0  0  0  0  0  0  0
    0.8933    2.2769   -1.9047 H   0  0  0  0  0  0  0  0  0  0  0  0
    1.6768    2.9070    0.4077 H   0  0  0  0  0  0  0  0  0  0  0  0
    3.0391    2.2076    2.3455 H   0  0  0  0  0  0  0  0  0  0  0  0
    3.5196   -0.1893    2.7333 H   0  0  0  0  0  0  0  0  0  0  0  0
    1.2746   -1.2189   -0.7809 H   0  0  0  0  0  0  0  0  0  0  0  0
  1  2  1  0
  2  3  2  0
  3  4  1  0
  4  5  2  0
  5  6  1  0
  6  7  2  0
  7  8  1  0
  8  9  1  0
  9 10  1  0
 10 11  2  0
 11 12  1  0
 12 13  2  0
 13 14  1  0
 14 15  1  0
 14 16  2  0
  7  2  1  0
 16 10  1  0
  3 17  1  0
  4 18  1  0
  5 19  1  0
  6 20  1  0
  8 21  1  0
  8 22  1  0
  9 23  1  0
  9 24  1  0
 11 25  1  0
 12 26  1  0
 13 27  1  0
 16 28  1  0
M  RAD  1   1   3
M  END
$$$$
