
     RDKit          3D

 28 29  0  0  0  0  0  0  0  0999 V2000
    2.6791   -1.5941    1.6222 N   0  0  0  0  0  1  0  0  0  0  0  0
    2.4765   -0.6098    0.6105 C   0  0  0  0  0  0  0  0  0  0  0  0
    3.2780    0.5382    0.6046 C   0  0  0  0  0  0  0  0  0  0  0  0
    3.0909    1.5228   -0.3684 C   0  0  0  0  0  0  0  0  0  0  0  0
    2.1016    1.3656   -1.3407 C   0  0  0  0  0  0  0  0  0  0  0  0
    1.2984    0.2224   -1.3445 C   0  0  0  0  0  0  0  0  0  0  0  0
    1.4797   -0.7792   -0.3740 C   0  0  0  0  0  0  0  0  0  0  0  0
    0.5633   -1.9815   -0.3639 C   0  0  0  0  0  0  0  0  0  0  0  0
   -0.5869   -1.8159    0.6398 C   0  0  0  0  0  0  0  0  0  0  0  0
   -1.4914   -0.6684    0.2685 C   0  0  0  0  0  0  0  0  0  0  0  0
   -2.4877   -0.8397   -0.7064 C   0  0  0  0  0  0  0  0  0  0  0  0
   -3.2919    0.2383   -1.0879 C   0  0  0  0  0  0  0  0  0  0  0  0
   -3.1014    1.4951   -0.5074 C   0  0  0  0  0  0  0  0  0  0  0  0
   -2.1050    1.6770    0.4569 C   0  0  0  0  0  0  0  0  0  0  0  0
   -1.8302    3.3993    1.2346 Br  0  0  0  0  0  0  0  0  0  0  0  0
   -1.3018    0.5993    0.8445 C   0  0  0  0  0  0  0  0  0  0  0  0
    4.0445    0.6701    1.3580 H   0  0  0  0  0  0  0  0  0  0  0  0
    3.7111    2.4098   -0.3666 H   0  0  0  0  0  0  0  0  0  0  0  0
    1.9535    2.1325   -2.0899 H   0  0  0  0  0  0  0  0  0  0  0  0
    0.5262    0.1233   -2.0975 H   0  0  0  0  0  0  0  0  0  0  0  0
    0.1470   -2.1609   -1.3798 H   0  0  0  0  0  0  0  0  0  0  0  0
    1.1449   -2.8911   -0.1008 H   0  0  0  0  0  0  0  0  0  0  0  0
   -1.1790   -2.7566    0.6642 H   0  0  0  0  0  0  0  0  0  0  0  0
   -0.1775   -1.6710    1.6634 H   0  0  0  0  0  0  0  0  0  0  0  0
   -2.6359   -1.8053   -1.1740 H   0  0  0  0  0  0  0  0  0  0  0  0
   -4.0592    0.1008   -1.8388 H   0  0  0  0  0  0  0  0  0  0  0  0
   -3.7239    2.3271   -0.8106 H   0  0  0  0  0  0  0  0  0  0  0  0
   -0.5229    0.7521    1.5814 H   0  0  0  0  0  0  0  0  0  0  0  0
  1  2  1  0
  2  3  2  0
  3  4  1  0
  4  5  2  0
  5  6  1  0
  6  7  2  0
  7  8  1  0
  8  9  1  0
  9 10  1  0
 10 11  2  0
 11 12  1  0
 12 13  2  0
 13 14  1  0
 14 15  1  0
 14 16  2  0
  7  2  1  0
 16 10  1  0
  3 17  1  0
  4 18  1  0
  5 19  1  0
  6 20  1  0
  8 21  1  0
  8 22  1  0
  9 23  1  0
  9 24  1  0
 11 25  1  0
 12 26  1  0
 13 27  1  0
 16 28  1  0
M  RAD  1   1   3
M  END
$$$$
