
     RDKit          3D

 28 29  0  0  0  0  0  0  0  0999 V2000
   -1.6567    1.9027    1.9019 N   0  0  0  0  0  1  0  0  0  0  0  0
   -2.4496    0.9802    1.1577 C   0  0  0  0  0  0  0  0  0  0  0  0
   -3.8310    1.1885    1.0634 C   0  0  0  0  0  0  0  0  0  0  0  0
   -4.6274    0.3079    0.3276 C   0  0  0  0  0  0  0  0  0  0  0  0
   -4.0468   -0.7832   -0.3220 C   0  0  0  0  0  0  0  0  0  0  0  0
   -2.6690   -0.9995   -0.2336 C   0  0  0  0  0  0  0  0  0  0  0  0
   -1.8583   -0.1294    0.5162 C   0  0  0  0  0  0  0  0  0  0  0  0
   -0.3687   -0.3642    0.5705 C   0  0  0  0  0  0  0  0  0  0  0  0
    0.3405    0.4110   -0.5440 C   0  0  0  0  0  0  0  0  0  0  0  0
    1.8263    0.1782   -0.4873 C   0  0  0  0  0  0  0  0  0  0  0  0
    2.6432    1.0054    0.3010 C   0  0  0  0  0  0  0  0  0  0  0  0
    4.0187    0.7676    0.3793 C   0  0  0  0  0  0  0  0  0  0  0  0
    4.5862   -0.3015   -0.3193 C   0  0  0  0  0  0  0  0  0  0  0  0
    3.7780   -1.1387   -1.0952 C   0  0  0  0  0  0  0  0  0  0  0  0
    4.5527   -2.6069   -2.0395 Br  0  0  0  0  0  0  0  0  0  0  0  0
    2.4008   -0.9033   -1.1759 C   0  0  0  0  0  0  0  0  0  0  0  0
   -4.2881    2.0366    1.5579 H   0  0  0  0  0  0  0  0  0  0  0  0
   -5.6945    0.4742    0.2566 H   0  0  0  0  0  0  0  0  0  0  0  0
   -4.6645   -1.4604   -0.8977 H   0  0  0  0  0  0  0  0  0  0  0  0
   -2.2333   -1.8452   -0.7513 H   0  0  0  0  0  0  0  0  0  0  0  0
    0.0311   -0.0548    1.5608 H   0  0  0  0  0  0  0  0  0  0  0  0
   -0.1536   -1.4505    0.4620 H   0  0  0  0  0  0  0  0  0  0  0  0
    0.1267    1.4978   -0.4420 H   0  0  0  0  0  0  0  0  0  0  0  0
   -0.0535    0.0887   -1.5333 H   0  0  0  0  0  0  0  0  0  0  0  0
    2.2147    1.8315    0.8550 H   0  0  0  0  0  0  0  0  0  0  0  0
    4.6446    1.4103    0.9847 H   0  0  0  0  0  0  0  0  0  0  0  0
    5.6516   -0.4813   -0.2536 H   0  0  0  0  0  0  0  0  0  0  0  0
    1.7800   -1.5615   -1.7711 H   0  0  0  0  0  0  0  0  0  0  0  0
  1  2  1  0
  2  3  2  0
  3  4  1  0
  4  5  2  0
  5  6  1  0
  6  7  2  0
  7  8  1  0
  8  9  1  0
  9 10  1  0
 10 11  2  0
 11 12  1  0
 12 13  2  0
 13 14  1  0
 14 15  1  0
 14 16  2  0
  7  2  1  0
 16 10  1  0
  3 17  1  0
  4 18  1  0
  5 19  1  0
  6 20  1  0
  8 21  1  0
  8 22  1  0
  9 23  1  0
  9 24  1  0
 11 25  1  0
 12 26  1  0
 13 27  1  0
 16 28  1  0
M  RAD  1   1   3
M  END
$$$$
