
     RDKit          3D

 28 29  0  0  0  0  0  0  0  0999 V2000
    2.3450   -2.6275    0.6944 N   0  0  0  0  0  1  0  0  0  0  0  0
    2.3285   -1.2382    0.3736 C   0  0  0  0  0  0  0  0  0  0  0  0
    3.2327   -0.3796    1.0103 C   0  0  0  0  0  0  0  0  0  0  0  0
    3.2281    0.9872    0.7225 C   0  0  0  0  0  0  0  0  0  0  0  0
    2.3195    1.5036   -0.2032 C   0  0  0  0  0  0  0  0  0  0  0  0
    1.4149    0.6544   -0.8455 C   0  0  0  0  0  0  0  0  0  0  0  0
    1.4124   -0.7245   -0.5690 C   0  0  0  0  0  0  0  0  0  0  0  0
    0.3887   -1.6159   -1.2345 C   0  0  0  0  0  0  0  0  0  0  0  0
   -0.8260   -1.8672   -0.3294 C   0  0  0  0  0  0  0  0  0  0  0  0
   -1.5803   -0.5943   -0.0406 C   0  0  0  0  0  0  0  0  0  0  0  0
   -2.4969   -0.0875   -0.9762 C   0  0  0  0  0  0  0  0  0  0  0  0
   -3.1576    1.1200   -0.7314 C   0  0  0  0  0  0  0  0  0  0  0  0
   -2.9013    1.8340    0.4423 C   0  0  0  0  0  0  0  0  0  0  0  0
   -1.9826    1.3417    1.3747 C   0  0  0  0  0  0  0  0  0  0  0  0
   -1.6162    2.3279    2.9683 Br  0  0  0  0  0  0  0  0  0  0  0  0
   -1.3235    0.1313    1.1350 C   0  0  0  0  0  0  0  0  0  0  0  0
    3.9377   -0.7713    1.7330 H   0  0  0  0  0  0  0  0  0  0  0  0
    3.9271    1.6471    1.2199 H   0  0  0  0  0  0  0  0  0  0  0  0
    2.3128    2.5640   -0.4201 H   0  0  0  0  0  0  0  0  0  0  0  0
    0.7074    1.0740   -1.5502 H   0  0  0  0  0  0  0  0  0  0  0  0
    0.0500   -1.1684   -2.1951 H   0  0  0  0  0  0  0  0  0  0  0  0
    0.8552   -2.5909   -1.4928 H   0  0  0  0  0  0  0  0  0  0  0  0
   -1.5046   -2.5896   -0.8330 H   0  0  0  0  0  0  0  0  0  0  0  0
   -0.4980   -2.3468    0.6188 H   0  0  0  0  0  0  0  0  0  0  0  0
   -2.6938   -0.6242   -1.8960 H   0  0  0  0  0  0  0  0  0  0  0  0
   -3.8641    1.5057   -1.4550 H   0  0  0  0  0  0  0  0  0  0  0  0
   -3.4122    2.7708    0.6238 H   0  0  0  0  0  0  0  0  0  0  0  0
   -0.6028   -0.2357    1.8555 H   0  0  0  0  0  0  0  0  0  0  0  0
  1  2  1  0
  2  3  2  0
  3  4  1  0
  4  5  2  0
  5  6  1  0
  6  7  2  0
  7  8  1  0
  8  9  1  0
  9 10  1  0
 10 11  2  0
 11 12  1  0
 12 13  2  0
 13 14  1  0
 14 15  1  0
 14 16  2  0
  7  2  1  0
 16 10  1  0
  3 17  1  0
  4 18  1  0
  5 19  1  0
  6 20  1  0
  8 21  1  0
  8 22  1  0
  9 23  1  0
  9 24  1  0
 11 25  1  0
 12 26  1  0
 13 27  1  0
 16 28  1  0
M  RAD  1   1   3
M  END
$$$$
