
     RDKit          3D

 28 29  0  0  0  0  0  0  0  0999 V2000
   -0.4105   -0.4679   -2.1261 N   0  0  0  0  0  1  0  0  0  0  0  0
   -1.3743   -0.0772   -1.1505 C   0  0  0  0  0  0  0  0  0  0  0  0
   -2.1985    1.0237   -1.4122 C   0  0  0  0  0  0  0  0  0  0  0  0
   -3.1421    1.4374   -0.4693 C   0  0  0  0  0  0  0  0  0  0  0  0
   -3.2661    0.7543    0.7417 C   0  0  0  0  0  0  0  0  0  0  0  0
   -2.4472   -0.3448    1.0131 C   0  0  0  0  0  0  0  0  0  0  0  0
   -1.4978   -0.7768    0.0706 C   0  0  0  0  0  0  0  0  0  0  0  0
   -0.5915   -1.9374    0.4148 C   0  0  0  0  0  0  0  0  0  0  0  0
    0.5682   -1.5063    1.3241 C   0  0  0  0  0  0  0  0  0  0  0  0
    1.4936   -0.5394    0.6308 C   0  0  0  0  0  0  0  0  0  0  0  0
    2.4959   -1.0138   -0.2311 C   0  0  0  0  0  0  0  0  0  0  0  0
    3.3206   -0.1148   -0.9138 C   0  0  0  0  0  0  0  0  0  0  0  0
    3.1449    1.2618   -0.7489 C   0  0  0  0  0  0  0  0  0  0  0  0
    2.1431    1.7430    0.1001 C   0  0  0  0  0  0  0  0  0  0  0  0
    1.8890    3.6240    0.3091 Br  0  0  0  0  0  0  0  0  0  0  0  0
    1.3196    0.8460    0.7886 C   0  0  0  0  0  0  0  0  0  0  0  0
   -2.1053    1.5626   -2.3468 H   0  0  0  0  0  0  0  0  0  0  0  0
   -3.7757    2.2902   -0.6764 H   0  0  0  0  0  0  0  0  0  0  0  0
   -3.9945    1.0794    1.4733 H   0  0  0  0  0  0  0  0  0  0  0  0
   -2.5481   -0.8571    1.9621 H   0  0  0  0  0  0  0  0  0  0  0  0
   -0.1917   -2.4221   -0.5017 H   0  0  0  0  0  0  0  0  0  0  0  0
   -1.1845   -2.7158    0.9428 H   0  0  0  0  0  0  0  0  0  0  0  0
    0.1670   -1.0559    2.2587 H   0  0  0  0  0  0  0  0  0  0  0  0
    1.1409   -2.4098    1.6270 H   0  0  0  0  0  0  0  0  0  0  0  0
    2.6327   -2.0779   -0.3787 H   0  0  0  0  0  0  0  0  0  0  0  0
    4.0921   -0.4854   -1.5762 H   0  0  0  0  0  0  0  0  0  0  0  0
    3.7831    1.9529   -1.2843 H   0  0  0  0  0  0  0  0  0  0  0  0
    0.5371    1.2271    1.4334 H   0  0  0  0  0  0  0  0  0  0  0  0
  1  2  1  0
  2  3  2  0
  3  4  1  0
  4  5  2  0
  5  6  1  0
  6  7  2  0
  7  8  1  0
  8  9  1  0
  9 10  1  0
 10 11  2  0
 11 12  1  0
 12 13  2  0
 13 14  1  0
 14 15  1  0
 14 16  2  0
  7  2  1  0
 16 10  1  0
  3 17  1  0
  4 18  1  0
  5 19  1  0
  6 20  1  0
  8 21  1  0
  8 22  1  0
  9 23  1  0
  9 24  1  0
 11 25  1  0
 12 26  1  0
 13 27  1  0
 16 28  1  0
M  RAD  1   1   3
M  END
$$$$
