
     RDKit          3D

 34 35  0  0  0  0  0  0  0  0999 V2000
   -4.6980    1.2953    0.0678 C   0  0  0  0  0  0  0  0  0  0  0  0
   -3.4396    0.4884   -0.0552 C   0  0  0  0  0  0  0  0  0  0  0  0
   -3.1402   -0.1762   -1.2540 C   0  0  0  0  0  0  0  0  0  0  0  0
   -1.9840   -0.9549   -1.3587 C   0  0  0  0  0  0  0  0  0  0  0  0
   -1.1210   -1.0936   -0.2605 C   0  0  0  0  0  0  0  0  0  0  0  0
    0.1461   -1.9001   -0.3883 C   0  0  0  0  0  0  0  0  0  0  0  0
    1.2540   -1.1285   -1.1246 C   0  0  0  0  0  0  0  0  0  0  0  0
    1.7845    0.0315   -0.3059 C   0  0  0  0  0  0  0  0  0  0  0  0
    1.0945    1.2569   -0.3742 C   0  0  0  0  0  0  0  0  0  0  0  0
    1.4943    2.3473    0.3972 C   0  0  0  0  0  0  0  0  0  0  0  0
    2.5937    2.2361    1.2441 C   0  0  0  0  0  0  0  0  0  0  0  0
    3.3031    1.0370    1.3160 C   0  0  0  0  0  0  0  0  0  0  0  0
    2.9170   -0.0759    0.5482 C   0  0  0  0  0  0  0  0  0  0  0  0
    3.9115   -1.5428    0.6372 S   0  0  0  0  0  0  0  0  0  0  0  0
    2.9565   -2.8967    1.1232 N   0  0  0  0  0  1  0  0  0  0  0  0
    5.0152   -1.3612    1.6415 O   0  0  0  0  0  0  0  0  0  0  0  0
    4.5288   -1.8141   -0.7057 O   0  0  0  0  0  0  0  0  0  0  0  0
   -1.4297   -0.4403    0.9437 C   0  0  0  0  0  0  0  0  0  0  0  0
   -2.5851    0.3394    1.0474 C   0  0  0  0  0  0  0  0  0  0  0  0
   -4.9758    1.7397   -0.9117 H   0  0  0  0  0  0  0  0  0  0  0  0
   -4.5621    2.1246    0.7944 H   0  0  0  0  0  0  0  0  0  0  0  0
   -5.5238    0.6403    0.4157 H   0  0  0  0  0  0  0  0  0  0  0  0
   -3.7990   -0.0879   -2.1090 H   0  0  0  0  0  0  0  0  0  0  0  0
   -1.7594   -1.4486   -2.2962 H   0  0  0  0  0  0  0  0  0  0  0  0
   -0.0758   -2.8316   -0.9532 H   0  0  0  0  0  0  0  0  0  0  0  0
    0.5012   -2.2142    0.6154 H   0  0  0  0  0  0  0  0  0  0  0  0
    2.0657   -1.8332   -1.3896 H   0  0  0  0  0  0  0  0  0  0  0  0
    0.8629   -0.7553   -2.0968 H   0  0  0  0  0  0  0  0  0  0  0  0
    0.2330    1.3659   -1.0218 H   0  0  0  0  0  0  0  0  0  0  0  0
    0.9483    3.2801    0.3394 H   0  0  0  0  0  0  0  0  0  0  0  0
    2.9029    3.0841    1.8415 H   0  0  0  0  0  0  0  0  0  0  0  0
    4.1626    0.9856    1.9711 H   0  0  0  0  0  0  0  0  0  0  0  0
   -0.7717   -0.5279    1.7994 H   0  0  0  0  0  0  0  0  0  0  0  0
   -2.8103    0.8307    1.9860 H   0  0  0  0  0  0  0  0  0  0  0  0
  1  2  1  0
  2  3  1  0
  3  4  2  0
  4  5  1  0
  5  6  1  0
  6  7  1  0
  7  8  1  0
  8  9  2  0
  9 10  1  0
 10 11  2  0
 11 12  1  0
 12 13  2  0
 13 14  1  0
 14 15  1  0
 14 16  2  0
 14 17  2  0
  5 18  2  0
 18 19  1  0
 19  2  2  0
 13  8  1  0
  1 20  1  0
  1 21  1  0
  1 22  1  0
  3 23  1  0
  4 24  1  0
  6 25  1  0
  6 26  1  0
  7 27  1  0
  7 28  1  0
  9 29  1  0
 10 30  1  0
 11 31  1  0
 12 32  1  0
 18 33  1  0
 19 34  1  0
M  RAD  1  15   3
M  END
$$$$
