
     RDKit          3D

 34 35  0  0  0  0  0  0  0  0999 V2000
    4.5896    0.2729   -1.6154 C   0  0  0  0  0  0  0  0  0  0  0  0
    3.3987    0.0743   -0.7254 C   0  0  0  0  0  0  0  0  0  0  0  0
    2.4986    1.1274   -0.5040 C   0  0  0  0  0  0  0  0  0  0  0  0
    1.4074    0.9539    0.3520 C   0  0  0  0  0  0  0  0  0  0  0  0
    1.2100   -0.2712    1.0097 C   0  0  0  0  0  0  0  0  0  0  0  0
    0.0106   -0.4750    1.8998 C   0  0  0  0  0  0  0  0  0  0  0  0
   -1.1070   -1.2636    1.1970 C   0  0  0  0  0  0  0  0  0  0  0  0
   -1.7600   -0.4647    0.0867 C   0  0  0  0  0  0  0  0  0  0  0  0
   -1.1540   -0.4844   -1.1841 C   0  0  0  0  0  0  0  0  0  0  0  0
   -1.6694    0.2738   -2.2344 C   0  0  0  0  0  0  0  0  0  0  0  0
   -2.8024    1.0585   -2.0371 C   0  0  0  0  0  0  0  0  0  0  0  0
   -3.4297    1.0809   -0.7913 C   0  0  0  0  0  0  0  0  0  0  0  0
   -2.9265    0.3254    0.2827 C   0  0  0  0  0  0  0  0  0  0  0  0
   -3.8202    0.3470    1.8155 S   0  0  0  0  0  0  0  0  0  0  0  0
   -2.8010    0.8722    3.1066 N   0  0  0  0  0  1  0  0  0  0  0  0
   -4.9862    1.2911    1.7231 O   0  0  0  0  0  0  0  0  0  0  0  0
   -4.3441   -1.0300    2.1116 O   0  0  0  0  0  0  0  0  0  0  0  0
    2.1190   -1.3194    0.7980 C   0  0  0  0  0  0  0  0  0  0  0  0
    3.2110   -1.1449   -0.0570 C   0  0  0  0  0  0  0  0  0  0  0  0
    5.4390    0.6594   -1.0145 H   0  0  0  0  0  0  0  0  0  0  0  0
    4.8882   -0.6860   -2.0903 H   0  0  0  0  0  0  0  0  0  0  0  0
    4.3577    0.9984   -2.4240 H   0  0  0  0  0  0  0  0  0  0  0  0
    2.6384    2.0811   -0.9977 H   0  0  0  0  0  0  0  0  0  0  0  0
    0.7120    1.7717    0.4955 H   0  0  0  0  0  0  0  0  0  0  0  0
   -0.3753    0.5050    2.2503 H   0  0  0  0  0  0  0  0  0  0  0  0
    0.3266   -1.0353    2.8066 H   0  0  0  0  0  0  0  0  0  0  0  0
   -0.6911   -2.2097    0.7854 H   0  0  0  0  0  0  0  0  0  0  0  0
   -1.8525   -1.5788    1.9525 H   0  0  0  0  0  0  0  0  0  0  0  0
   -0.2686   -1.0831   -1.3602 H   0  0  0  0  0  0  0  0  0  0  0  0
   -1.1872    0.2541   -3.2032 H   0  0  0  0  0  0  0  0  0  0  0  0
   -3.2014    1.6456   -2.8542 H   0  0  0  0  0  0  0  0  0  0  0  0
   -4.3175    1.6877   -0.6725 H   0  0  0  0  0  0  0  0  0  0  0  0
    1.9800   -2.2721    1.2940 H   0  0  0  0  0  0  0  0  0  0  0  0
    3.9072   -1.9619   -0.2013 H   0  0  0  0  0  0  0  0  0  0  0  0
  1  2  1  0
  2  3  1  0
  3  4  2  0
  4  5  1  0
  5  6  1  0
  6  7  1  0
  7  8  1  0
  8  9  2  0
  9 10  1  0
 10 11  2  0
 11 12  1  0
 12 13  2  0
 13 14  1  0
 14 15  1  0
 14 16  2  0
 14 17  2  0
  5 18  2  0
 18 19  1  0
 19  2  2  0
 13  8  1  0
  1 20  1  0
  1 21  1  0
  1 22  1  0
  3 23  1  0
  4 24  1  0
  6 25  1  0
  6 26  1  0
  7 27  1  0
  7 28  1  0
  9 29  1  0
 10 30  1  0
 11 31  1  0
 12 32  1  0
 18 33  1  0
 19 34  1  0
M  RAD  1  15   3
M  END
$$$$
