
     RDKit          3D

 34 35  0  0  0  0  0  0  0  0999 V2000
    5.5331   -1.3023   -0.0390 C   0  0  0  0  0  0  0  0  0  0  0  0
    4.1283   -0.7896    0.0772 C   0  0  0  0  0  0  0  0  0  0  0  0
    3.7238    0.3366   -0.6554 C   0  0  0  0  0  0  0  0  0  0  0  0
    2.4252    0.8364   -0.5207 C   0  0  0  0  0  0  0  0  0  0  0  0
    1.5211    0.2303    0.3657 C   0  0  0  0  0  0  0  0  0  0  0  0
    0.1122    0.7468    0.4832 C   0  0  0  0  0  0  0  0  0  0  0  0
   -0.7963    0.0752   -0.5531 C   0  0  0  0  0  0  0  0  0  0  0  0
   -2.2202    0.5691   -0.4209 C   0  0  0  0  0  0  0  0  0  0  0  0
   -2.5305    1.8280   -0.9681 C   0  0  0  0  0  0  0  0  0  0  0  0
   -3.8153    2.3590   -0.8560 C   0  0  0  0  0  0  0  0  0  0  0  0
   -4.8098    1.6442   -0.1930 C   0  0  0  0  0  0  0  0  0  0  0  0
   -4.5235    0.3960    0.3607 C   0  0  0  0  0  0  0  0  0  0  0  0
   -3.2347   -0.1572    0.2611 C   0  0  0  0  0  0  0  0  0  0  0  0
   -2.9487   -1.7578    0.9688 S   0  0  0  0  0  0  0  0  0  0  0  0
   -1.6563   -1.6831    2.1118 N   0  0  0  0  0  1  0  0  0  0  0  0
   -4.1814   -2.2404    1.6808 O   0  0  0  0  0  0  0  0  0  0  0  0
   -2.6092   -2.7374   -0.1191 O   0  0  0  0  0  0  0  0  0  0  0  0
    1.9279   -0.8938    1.1016 C   0  0  0  0  0  0  0  0  0  0  0  0
    3.2265   -1.3934    0.9665 C   0  0  0  0  0  0  0  0  0  0  0  0
    5.5672   -2.3972    0.1460 H   0  0  0  0  0  0  0  0  0  0  0  0
    6.1760   -0.7889    0.7060 H   0  0  0  0  0  0  0  0  0  0  0  0
    5.9362   -1.1138   -1.0568 H   0  0  0  0  0  0  0  0  0  0  0  0
    4.4122    0.8253   -1.3340 H   0  0  0  0  0  0  0  0  0  0  0  0
    2.1246    1.6969   -1.1058 H   0  0  0  0  0  0  0  0  0  0  0  0
   -0.2751    0.5586    1.5077 H   0  0  0  0  0  0  0  0  0  0  0  0
    0.1052    1.8487    0.3313 H   0  0  0  0  0  0  0  0  0  0  0  0
   -0.7315   -1.0260   -0.4540 H   0  0  0  0  0  0  0  0  0  0  0  0
   -0.4226    0.3133   -1.5737 H   0  0  0  0  0  0  0  0  0  0  0  0
   -1.7702    2.4033   -1.4826 H   0  0  0  0  0  0  0  0  0  0  0  0
   -4.0394    3.3281   -1.2828 H   0  0  0  0  0  0  0  0  0  0  0  0
   -5.8064    2.0579   -0.1078 H   0  0  0  0  0  0  0  0  0  0  0  0
   -5.3167   -0.1380    0.8669 H   0  0  0  0  0  0  0  0  0  0  0  0
    1.2408   -1.3817    1.7814 H   0  0  0  0  0  0  0  0  0  0  0  0
    3.5272   -2.2532    1.5524 H   0  0  0  0  0  0  0  0  0  0  0  0
  1  2  1  0
  2  3  1  0
  3  4  2  0
  4  5  1  0
  5  6  1  0
  6  7  1  0
  7  8  1  0
  8  9  2  0
  9 10  1  0
 10 11  2  0
 11 12  1  0
 12 13  2  0
 13 14  1  0
 14 15  1  0
 14 16  2  0
 14 17  2  0
  5 18  2  0
 18 19  1  0
 19  2  2  0
 13  8  1  0
  1 20  1  0
  1 21  1  0
  1 22  1  0
  3 23  1  0
  4 24  1  0
  6 25  1  0
  6 26  1  0
  7 27  1  0
  7 28  1  0
  9 29  1  0
 10 30  1  0
 11 31  1  0
 12 32  1  0
 18 33  1  0
 19 34  1  0
M  RAD  1  15   3
M  END
$$$$
