
     RDKit          3D

 34 35  0  0  0  0  0  0  0  0999 V2000
    4.6871   -1.1404   -0.6514 C   0  0  0  0  0  0  0  0  0  0  0  0
    3.4389   -0.4022   -0.2685 C   0  0  0  0  0  0  0  0  0  0  0  0
    2.5431   -0.9604    0.6557 C   0  0  0  0  0  0  0  0  0  0  0  0
    1.3969   -0.2584    1.0389 C   0  0  0  0  0  0  0  0  0  0  0  0
    1.1386    1.0182    0.5137 C   0  0  0  0  0  0  0  0  0  0  0  0
   -0.1182    1.7594    0.8924 C   0  0  0  0  0  0  0  0  0  0  0  0
   -1.2009    1.6605   -0.1952 C   0  0  0  0  0  0  0  0  0  0  0  0
   -1.7691    0.2602   -0.3115 C   0  0  0  0  0  0  0  0  0  0  0  0
   -1.0835   -0.6644   -1.1225 C   0  0  0  0  0  0  0  0  0  0  0  0
   -1.5189   -1.9847   -1.2278 C   0  0  0  0  0  0  0  0  0  0  0  0
   -2.6496   -2.4032   -0.5318 C   0  0  0  0  0  0  0  0  0  0  0  0
   -3.3548   -1.5008    0.2649 C   0  0  0  0  0  0  0  0  0  0  0  0
   -2.9331   -0.1649    0.3869 C   0  0  0  0  0  0  0  0  0  0  0  0
   -3.9224    0.9420    1.3589 S   0  0  0  0  0  0  0  0  0  0  0  0
   -2.9796    1.6542    2.6180 N   0  0  0  0  0  1  0  0  0  0  0  0
   -5.0651    0.1975    1.9909 O   0  0  0  0  0  0  0  0  0  0  0  0
   -4.4857    2.0198    0.4762 O   0  0  0  0  0  0  0  0  0  0  0  0
    2.0428    1.5814   -0.4003 C   0  0  0  0  0  0  0  0  0  0  0  0
    3.1897    0.8794   -0.7821 C   0  0  0  0  0  0  0  0  0  0  0  0
    5.5023   -0.8780    0.0547 H   0  0  0  0  0  0  0  0  0  0  0  0
    5.0005   -0.8720   -1.6828 H   0  0  0  0  0  0  0  0  0  0  0  0
    4.5187   -2.2380   -0.6189 H   0  0  0  0  0  0  0  0  0  0  0  0
    2.7291   -1.9412    1.0759 H   0  0  0  0  0  0  0  0  0  0  0  0
    0.7066   -0.7135    1.7385 H   0  0  0  0  0  0  0  0  0  0  0  0
    0.1305    2.8312    1.0518 H   0  0  0  0  0  0  0  0  0  0  0  0
   -0.5103    1.3771    1.8580 H   0  0  0  0  0  0  0  0  0  0  0  0
   -1.9979    2.3968    0.0249 H   0  0  0  0  0  0  0  0  0  0  0  0
   -0.7744    1.9761   -1.1730 H   0  0  0  0  0  0  0  0  0  0  0  0
   -0.1982   -0.3634   -1.6694 H   0  0  0  0  0  0  0  0  0  0  0  0
   -0.9761   -2.6853   -1.8491 H   0  0  0  0  0  0  0  0  0  0  0  0
   -2.9864   -3.4285   -0.6156 H   0  0  0  0  0  0  0  0  0  0  0  0
   -4.2387   -1.8510    0.7811 H   0  0  0  0  0  0  0  0  0  0  0  0
    1.8573    2.5632   -0.8182 H   0  0  0  0  0  0  0  0  0  0  0  0
    3.8807    1.3335   -1.4816 H   0  0  0  0  0  0  0  0  0  0  0  0
  1  2  1  0
  2  3  1  0
  3  4  2  0
  4  5  1  0
  5  6  1  0
  6  7  1  0
  7  8  1  0
  8  9  2  0
  9 10  1  0
 10 11  2  0
 11 12  1  0
 12 13  2  0
 13 14  1  0
 14 15  1  0
 14 16  2  0
 14 17  2  0
  5 18  2  0
 18 19  1  0
 19  2  2  0
 13  8  1  0
  1 20  1  0
  1 21  1  0
  1 22  1  0
  3 23  1  0
  4 24  1  0
  6 25  1  0
  6 26  1  0
  7 27  1  0
  7 28  1  0
  9 29  1  0
 10 30  1  0
 11 31  1  0
 12 32  1  0
 18 33  1  0
 19 34  1  0
M  RAD  1  15   3
M  END
$$$$
