
     RDKit          3D

 34 35  0  0  0  0  0  0  0  0999 V2000
    5.6094   -0.3582    0.7311 C   0  0  0  0  0  0  0  0  0  0  0  0
    4.1890   -0.1666    0.2890 C   0  0  0  0  0  0  0  0  0  0  0  0
    3.3788   -1.2782    0.0124 C   0  0  0  0  0  0  0  0  0  0  0  0
    2.0437   -1.1019   -0.3627 C   0  0  0  0  0  0  0  0  0  0  0  0
    1.5005    0.1886   -0.4629 C   0  0  0  0  0  0  0  0  0  0  0  0
    0.0529    0.3765   -0.8292 C   0  0  0  0  0  0  0  0  0  0  0  0
   -0.8256    0.3726    0.4268 C   0  0  0  0  0  0  0  0  0  0  0  0
   -2.2865    0.5086    0.0601 C   0  0  0  0  0  0  0  0  0  0  0  0
   -2.7785    1.7982   -0.2142 C   0  0  0  0  0  0  0  0  0  0  0  0
   -4.1090    1.9906   -0.5862 C   0  0  0  0  0  0  0  0  0  0  0  0
   -4.9676    0.8993   -0.6950 C   0  0  0  0  0  0  0  0  0  0  0  0
   -4.4986   -0.3890   -0.4353 C   0  0  0  0  0  0  0  0  0  0  0  0
   -3.1603   -0.6057   -0.0634 C   0  0  0  0  0  0  0  0  0  0  0  0
   -2.6351   -2.2668    0.2657 S   0  0  0  0  0  0  0  0  0  0  0  0
   -2.2779   -2.4384    1.9472 N   0  0  0  0  0  1  0  0  0  0  0  0
   -1.4159   -2.5950   -0.5482 O   0  0  0  0  0  0  0  0  0  0  0  0
   -3.7234   -3.2386   -0.0956 O   0  0  0  0  0  0  0  0  0  0  0  0
    2.3026    1.2985   -0.1548 C   0  0  0  0  0  0  0  0  0  0  0  0
    3.6378    1.1218    0.2201 C   0  0  0  0  0  0  0  0  0  0  0  0
    6.2347    0.5080    0.4264 H   0  0  0  0  0  0  0  0  0  0  0  0
    6.0426   -1.2723    0.2720 H   0  0  0  0  0  0  0  0  0  0  0  0
    5.6419   -0.4575    1.8361 H   0  0  0  0  0  0  0  0  0  0  0  0
    3.7797   -2.2814    0.0896 H   0  0  0  0  0  0  0  0  0  0  0  0
    1.4321   -1.9712   -0.5698 H   0  0  0  0  0  0  0  0  0  0  0  0
   -0.0743    1.3390   -1.3722 H   0  0  0  0  0  0  0  0  0  0  0  0
   -0.2677   -0.4314   -1.5219 H   0  0  0  0  0  0  0  0  0  0  0  0
   -0.5309    1.2240    1.0797 H   0  0  0  0  0  0  0  0  0  0  0  0
   -0.6386   -0.5444    1.0200 H   0  0  0  0  0  0  0  0  0  0  0  0
   -2.1258    2.6597   -0.1414 H   0  0  0  0  0  0  0  0  0  0  0  0
   -4.4744    2.9885   -0.7918 H   0  0  0  0  0  0  0  0  0  0  0  0
   -6.0002    1.0512   -0.9820 H   0  0  0  0  0  0  0  0  0  0  0  0
   -5.1882   -1.2178   -0.5251 H   0  0  0  0  0  0  0  0  0  0  0  0
    1.8923    2.2999   -0.1997 H   0  0  0  0  0  0  0  0  0  0  0  0
    4.2405    1.9893    0.4592 H   0  0  0  0  0  0  0  0  0  0  0  0
  1  2  1  0
  2  3  1  0
  3  4  2  0
  4  5  1  0
  5  6  1  0
  6  7  1  0
  7  8  1  0
  8  9  2  0
  9 10  1  0
 10 11  2  0
 11 12  1  0
 12 13  2  0
 13 14  1  0
 14 15  1  0
 14 16  2  0
 14 17  2  0
  5 18  2  0
 18 19  1  0
 19  2  2  0
 13  8  1  0
  1 20  1  0
  1 21  1  0
  1 22  1  0
  3 23  1  0
  4 24  1  0
  6 25  1  0
  6 26  1  0
  7 27  1  0
  7 28  1  0
  9 29  1  0
 10 30  1  0
 11 31  1  0
 12 32  1  0
 18 33  1  0
 19 34  1  0
M  RAD  1  15   3
M  END
$$$$
