
     RDKit          3D

 34 35  0  0  0  0  0  0  0  0999 V2000
    5.5082    0.5970   -1.2444 C   0  0  0  0  0  0  0  0  0  0  0  0
    4.1234    0.2050   -0.8218 C   0  0  0  0  0  0  0  0  0  0  0  0
    3.7686    0.2171    0.5356 C   0  0  0  0  0  0  0  0  0  0  0  0
    2.4673   -0.1110    0.9273 C   0  0  0  0  0  0  0  0  0  0  0  0
    1.5031   -0.4527   -0.0338 C   0  0  0  0  0  0  0  0  0  0  0  0
    0.0925   -0.7686    0.3850 C   0  0  0  0  0  0  0  0  0  0  0  0
   -0.7515    0.5096    0.4423 C   0  0  0  0  0  0  0  0  0  0  0  0
   -2.1830    0.1911    0.8118 C   0  0  0  0  0  0  0  0  0  0  0  0
   -2.4833   -0.0034    2.1728 C   0  0  0  0  0  0  0  0  0  0  0  0
   -3.7776   -0.3279    2.5791 C   0  0  0  0  0  0  0  0  0  0  0  0
   -4.7909   -0.4681    1.6338 C   0  0  0  0  0  0  0  0  0  0  0  0
   -4.5134   -0.2875    0.2783 C   0  0  0  0  0  0  0  0  0  0  0  0
   -3.2151    0.0354   -0.1532 C   0  0  0  0  0  0  0  0  0  0  0  0
   -2.9360    0.2648   -1.8890 S   0  0  0  0  0  0  0  0  0  0  0  0
   -2.5747    1.9248   -2.2027 N   0  0  0  0  0  1  0  0  0  0  0  0
   -4.1637   -0.1151   -2.6686 O   0  0  0  0  0  0  0  0  0  0  0  0
   -1.7956   -0.5983   -2.3484 O   0  0  0  0  0  0  0  0  0  0  0  0
    1.8504   -0.4335   -1.3938 C   0  0  0  0  0  0  0  0  0  0  0  0
    3.1517   -0.1052   -1.7852 C   0  0  0  0  0  0  0  0  0  0  0  0
    6.2490    0.3195   -0.4645 H   0  0  0  0  0  0  0  0  0  0  0  0
    5.7914    0.0802   -2.1861 H   0  0  0  0  0  0  0  0  0  0  0  0
    5.5476    1.6942   -1.4074 H   0  0  0  0  0  0  0  0  0  0  0  0
    4.4983    0.4833    1.2905 H   0  0  0  0  0  0  0  0  0  0  0  0
    2.2095   -0.0934    1.9791 H   0  0  0  0  0  0  0  0  0  0  0  0
   -0.3584   -1.4922   -0.3279 H   0  0  0  0  0  0  0  0  0  0  0  0
    0.0990   -1.2581    1.3839 H   0  0  0  0  0  0  0  0  0  0  0  0
   -0.3205    1.1966    1.2041 H   0  0  0  0  0  0  0  0  0  0  0  0
   -0.6910    1.0499   -0.5233 H   0  0  0  0  0  0  0  0  0  0  0  0
   -1.7084    0.0949    2.9235 H   0  0  0  0  0  0  0  0  0  0  0  0
   -3.9946   -0.4722    3.6297 H   0  0  0  0  0  0  0  0  0  0  0  0
   -5.7949   -0.7182    1.9516 H   0  0  0  0  0  0  0  0  0  0  0  0
   -5.3202   -0.4002   -0.4338 H   0  0  0  0  0  0  0  0  0  0  0  0
    1.1123   -0.6675   -2.1509 H   0  0  0  0  0  0  0  0  0  0  0  0
    3.4004   -0.0904   -2.8392 H   0  0  0  0  0  0  0  0  0  0  0  0
  1  2  1  0
  2  3  1  0
  3  4  2  0
  4  5  1  0
  5  6  1  0
  6  7  1  0
  7  8  1  0
  8  9  2  0
  9 10  1  0
 10 11  2  0
 11 12  1  0
 12 13  2  0
 13 14  1  0
 14 15  1  0
 14 16  2  0
 14 17  2  0
  5 18  2  0
 18 19  1  0
 19  2  2  0
 13  8  1  0
  1 20  1  0
  1 21  1  0
  1 22  1  0
  3 23  1  0
  4 24  1  0
  6 25  1  0
  6 26  1  0
  7 27  1  0
  7 28  1  0
  9 29  1  0
 10 30  1  0
 11 31  1  0
 12 32  1  0
 18 33  1  0
 19 34  1  0
M  RAD  1  15   3
M  END
$$$$
