
     RDKit          3D

 34 35  0  0  0  0  0  0  0  0999 V2000
   -5.6744    0.3773    0.0103 C   0  0  0  0  0  0  0  0  0  0  0  0
   -4.1871    0.3430   -0.1808 C   0  0  0  0  0  0  0  0  0  0  0  0
   -3.4752    1.5314   -0.4036 C   0  0  0  0  0  0  0  0  0  0  0  0
   -2.0941    1.4966   -0.6173 C   0  0  0  0  0  0  0  0  0  0  0  0
   -1.4103    0.2708   -0.6336 C   0  0  0  0  0  0  0  0  0  0  0  0
    0.0820    0.2371   -0.8275 C   0  0  0  0  0  0  0  0  0  0  0  0
    0.8036    0.3690    0.5187 C   0  0  0  0  0  0  0  0  0  0  0  0
    2.3038    0.3067    0.3335 C   0  0  0  0  0  0  0  0  0  0  0  0
    2.9558    1.4659   -0.1269 C   0  0  0  0  0  0  0  0  0  0  0  0
    4.3326    1.4708   -0.3496 C   0  0  0  0  0  0  0  0  0  0  0  0
    5.0801    0.3184   -0.1201 C   0  0  0  0  0  0  0  0  0  0  0  0
    4.4540   -0.8434    0.3326 C   0  0  0  0  0  0  0  0  0  0  0  0
    3.0671   -0.8711    0.5616 C   0  0  0  0  0  0  0  0  0  0  0  0
    2.3423   -2.3756    1.1582 S   0  0  0  0  0  0  0  0  0  0  0  0
    1.0877   -2.8976    0.0924 N   0  0  0  0  0  1  0  0  0  0  0  0
    1.7809   -2.1544    2.5344 O   0  0  0  0  0  0  0  0  0  0  0  0
    3.3803   -3.4602    1.2324 O   0  0  0  0  0  0  0  0  0  0  0  0
   -2.1239   -0.9180   -0.4149 C   0  0  0  0  0  0  0  0  0  0  0  0
   -3.5050   -0.8829   -0.2012 C   0  0  0  0  0  0  0  0  0  0  0  0
   -5.9847    1.3242    0.5014 H   0  0  0  0  0  0  0  0  0  0  0  0
   -6.1751    0.3005   -0.9773 H   0  0  0  0  0  0  0  0  0  0  0  0
   -6.0067   -0.4665    0.6518 H   0  0  0  0  0  0  0  0  0  0  0  0
   -3.9884    2.4852   -0.4078 H   0  0  0  0  0  0  0  0  0  0  0  0
   -1.5576    2.4248   -0.7716 H   0  0  0  0  0  0  0  0  0  0  0  0
    0.3770   -0.7112   -1.3262 H   0  0  0  0  0  0  0  0  0  0  0  0
    0.3892    1.0670   -1.5014 H   0  0  0  0  0  0  0  0  0  0  0  0
    0.4424   -0.4102    1.2180 H   0  0  0  0  0  0  0  0  0  0  0  0
    0.5351    1.3443    0.9819 H   0  0  0  0  0  0  0  0  0  0  0  0
    2.3922    2.3713   -0.3175 H   0  0  0  0  0  0  0  0  0  0  0  0
    4.8204    2.3702   -0.7028 H   0  0  0  0  0  0  0  0  0  0  0  0
    6.1487    0.3247   -0.2929 H   0  0  0  0  0  0  0  0  0  0  0  0
    5.0606   -1.7224    0.5055 H   0  0  0  0  0  0  0  0  0  0  0  0
   -1.6117   -1.8720   -0.4122 H   0  0  0  0  0  0  0  0  0  0  0  0
   -4.0414   -1.8112   -0.0477 H   0  0  0  0  0  0  0  0  0  0  0  0
  1  2  1  0
  2  3  1  0
  3  4  2  0
  4  5  1  0
  5  6  1  0
  6  7  1  0
  7  8  1  0
  8  9  2  0
  9 10  1  0
 10 11  2  0
 11 12  1  0
 12 13  2  0
 13 14  1  0
 14 15  1  0
 14 16  2  0
 14 17  2  0
  5 18  2  0
 18 19  1  0
 19  2  2  0
 13  8  1  0
  1 20  1  0
  1 21  1  0
  1 22  1  0
  3 23  1  0
  4 24  1  0
  6 25  1  0
  6 26  1  0
  7 27  1  0
  7 28  1  0
  9 29  1  0
 10 30  1  0
 11 31  1  0
 12 32  1  0
 18 33  1  0
 19 34  1  0
M  RAD  1  15   3
M  END
$$$$
