
     RDKit          3D

 34 35  0  0  0  0  0  0  0  0999 V2000
    4.7796   -0.9094   -0.1942 C   0  0  0  0  0  0  0  0  0  0  0  0
    3.4678   -0.1954   -0.0564 C   0  0  0  0  0  0  0  0  0  0  0  0
    3.2076    0.5934    1.0744 C   0  0  0  0  0  0  0  0  0  0  0  0
    1.9983    1.2852    1.1883 C   0  0  0  0  0  0  0  0  0  0  0  0
    1.0404    1.2115    0.1650 C   0  0  0  0  0  0  0  0  0  0  0  0
   -0.2797    1.9250    0.3085 C   0  0  0  0  0  0  0  0  0  0  0  0
   -1.2505    1.1703    1.2320 C   0  0  0  0  0  0  0  0  0  0  0  0
   -1.7388   -0.1244    0.6136 C   0  0  0  0  0  0  0  0  0  0  0  0
   -0.9380   -1.2722    0.7680 C   0  0  0  0  0  0  0  0  0  0  0  0
   -1.2990   -2.4816    0.1758 C   0  0  0  0  0  0  0  0  0  0  0  0
   -2.4687   -2.5686   -0.5741 C   0  0  0  0  0  0  0  0  0  0  0  0
   -3.2867   -1.4490   -0.7271 C   0  0  0  0  0  0  0  0  0  0  0  0
   -2.9416   -0.2187   -0.1400 C   0  0  0  0  0  0  0  0  0  0  0  0
   -4.0681    1.1409   -0.3166 S   0  0  0  0  0  0  0  0  0  0  0  0
   -3.2813    2.4915   -1.0501 N   0  0  0  0  0  1  0  0  0  0  0  0
   -4.5968    1.5345    1.0338 O   0  0  0  0  0  0  0  0  0  0  0  0
   -5.2284    0.7438   -1.1858 O   0  0  0  0  0  0  0  0  0  0  0  0
    1.3084    0.4339   -0.9733 C   0  0  0  0  0  0  0  0  0  0  0  0
    2.5171   -0.2589   -1.0861 C   0  0  0  0  0  0  0  0  0  0  0  0
    5.5123   -0.2419   -0.6939 H   0  0  0  0  0  0  0  0  0  0  0  0
    5.1746   -1.1995    0.8027 H   0  0  0  0  0  0  0  0  0  0  0  0
    4.6608   -1.8341   -0.7983 H   0  0  0  0  0  0  0  0  0  0  0  0
    3.9386    0.6692    1.8698 H   0  0  0  0  0  0  0  0  0  0  0  0
    1.8066    1.8771    2.0748 H   0  0  0  0  0  0  0  0  0  0  0  0
   -0.0977    2.9365    0.7324 H   0  0  0  0  0  0  0  0  0  0  0  0
   -0.7416    2.0770   -0.6894 H   0  0  0  0  0  0  0  0  0  0  0  0
   -0.7501    0.9586    2.2027 H   0  0  0  0  0  0  0  0  0  0  0  0
   -2.0983    1.8370    1.4819 H   0  0  0  0  0  0  0  0  0  0  0  0
   -0.0207   -1.2276    1.3425 H   0  0  0  0  0  0  0  0  0  0  0  0
   -0.6683   -3.3529    0.2973 H   0  0  0  0  0  0  0  0  0  0  0  0
   -2.7476   -3.5088   -1.0323 H   0  0  0  0  0  0  0  0  0  0  0  0
   -4.1974   -1.5511   -1.3021 H   0  0  0  0  0  0  0  0  0  0  0  0
    0.5782    0.3573   -1.7695 H   0  0  0  0  0  0  0  0  0  0  0  0
    2.7091   -0.8485   -1.9740 H   0  0  0  0  0  0  0  0  0  0  0  0
  1  2  1  0
  2  3  1  0
  3  4  2  0
  4  5  1  0
  5  6  1  0
  6  7  1  0
  7  8  1  0
  8  9  2  0
  9 10  1  0
 10 11  2  0
 11 12  1  0
 12 13  2  0
 13 14  1  0
 14 15  1  0
 14 16  2  0
 14 17  2  0
  5 18  2  0
 18 19  1  0
 19  2  2  0
 13  8  1  0
  1 20  1  0
  1 21  1  0
  1 22  1  0
  3 23  1  0
  4 24  1  0
  6 25  1  0
  6 26  1  0
  7 27  1  0
  7 28  1  0
  9 29  1  0
 10 30  1  0
 11 31  1  0
 12 32  1  0
 18 33  1  0
 19 34  1  0
M  RAD  1  15   3
M  END
$$$$
