
     RDKit          3D

 34 35  0  0  0  0  0  0  0  0999 V2000
    5.6147    0.4648    0.5593 C   0  0  0  0  0  0  0  0  0  0  0  0
    4.1907    0.1608    0.1992 C   0  0  0  0  0  0  0  0  0  0  0  0
    3.4180    1.1082   -0.4893 C   0  0  0  0  0  0  0  0  0  0  0  0
    2.0796    0.8411   -0.7918 C   0  0  0  0  0  0  0  0  0  0  0  0
    1.4954   -0.3759   -0.4068 C   0  0  0  0  0  0  0  0  0  0  0  0
    0.0442   -0.6472   -0.6986 C   0  0  0  0  0  0  0  0  0  0  0  0
   -0.8393   -0.1447    0.4488 C   0  0  0  0  0  0  0  0  0  0  0  0
   -2.3022   -0.3678    0.1368 C   0  0  0  0  0  0  0  0  0  0  0  0
   -2.8343   -1.6511    0.3612 C   0  0  0  0  0  0  0  0  0  0  0  0
   -4.1687   -1.9321    0.0677 C   0  0  0  0  0  0  0  0  0  0  0  0
   -4.9911   -0.9388   -0.4585 C   0  0  0  0  0  0  0  0  0  0  0  0
   -4.4820    0.3384   -0.6963 C   0  0  0  0  0  0  0  0  0  0  0  0
   -3.1391    0.6416   -0.4120 C   0  0  0  0  0  0  0  0  0  0  0  0
   -2.5619    2.2885   -0.7252 S   0  0  0  0  0  0  0  0  0  0  0  0
   -2.2068    3.0720    0.7730 N   0  0  0  0  0  1  0  0  0  0  0  0
   -3.6168    3.0823   -1.4440 O   0  0  0  0  0  0  0  0  0  0  0  0
   -1.3292    2.2507   -1.5829 O   0  0  0  0  0  0  0  0  0  0  0  0
    2.2600   -1.3097    0.3101 C   0  0  0  0  0  0  0  0  0  0  0  0
    3.5986   -1.0423    0.6123 C   0  0  0  0  0  0  0  0  0  0  0  0
    5.6455    0.9729    1.5457 H   0  0  0  0  0  0  0  0  0  0  0  0
    6.2130   -0.4696    0.6139 H   0  0  0  0  0  0  0  0  0  0  0  0
    6.0791    1.1255   -0.2035 H   0  0  0  0  0  0  0  0  0  0  0  0
    3.8507    2.0546   -0.7896 H   0  0  0  0  0  0  0  0  0  0  0  0
    1.4972    1.5849   -1.3213 H   0  0  0  0  0  0  0  0  0  0  0  0
   -0.2472   -0.1518   -1.6499 H   0  0  0  0  0  0  0  0  0  0  0  0
   -0.1116   -1.7395   -0.8405 H   0  0  0  0  0  0  0  0  0  0  0  0
   -0.5750   -0.6946    1.3793 H   0  0  0  0  0  0  0  0  0  0  0  0
   -0.6253    0.9227    0.6552 H   0  0  0  0  0  0  0  0  0  0  0  0
   -2.2100   -2.4395    0.7641 H   0  0  0  0  0  0  0  0  0  0  0  0
   -4.5651   -2.9230    0.2477 H   0  0  0  0  0  0  0  0  0  0  0  0
   -6.0268   -1.1586   -0.6838 H   0  0  0  0  0  0  0  0  0  0  0  0
   -5.1441    1.0911   -1.1033 H   0  0  0  0  0  0  0  0  0  0  0  0
    1.8178   -2.2418    0.6395 H   0  0  0  0  0  0  0  0  0  0  0  0
    4.1719   -1.7720    1.1707 H   0  0  0  0  0  0  0  0  0  0  0  0
  1  2  1  0
  2  3  1  0
  3  4  2  0
  4  5  1  0
  5  6  1  0
  6  7  1  0
  7  8  1  0
  8  9  2  0
  9 10  1  0
 10 11  2  0
 11 12  1  0
 12 13  2  0
 13 14  1  0
 14 15  1  0
 14 16  2  0
 14 17  2  0
  5 18  2  0
 18 19  1  0
 19  2  2  0
 13  8  1  0
  1 20  1  0
  1 21  1  0
  1 22  1  0
  3 23  1  0
  4 24  1  0
  6 25  1  0
  6 26  1  0
  7 27  1  0
  7 28  1  0
  9 29  1  0
 10 30  1  0
 11 31  1  0
 12 32  1  0
 18 33  1  0
 19 34  1  0
M  RAD  1  15   3
M  END
$$$$
