
     RDKit          3D

 34 35  0  0  0  0  0  0  0  0999 V2000
    5.5538   -1.1762   -0.2135 C   0  0  0  0  0  0  0  0  0  0  0  0
    4.1421   -0.7008   -0.0373 C   0  0  0  0  0  0  0  0  0  0  0  0
    3.6986    0.4565   -0.6949 C   0  0  0  0  0  0  0  0  0  0  0  0
    2.3937    0.9202   -0.5032 C   0  0  0  0  0  0  0  0  0  0  0  0
    1.5225    0.2455    0.3664 C   0  0  0  0  0  0  0  0  0  0  0  0
    0.1067    0.7245    0.5442 C   0  0  0  0  0  0  0  0  0  0  0  0
   -0.8119    0.0941   -0.5090 C   0  0  0  0  0  0  0  0  0  0  0  0
   -2.2419    0.5493   -0.3175 C   0  0  0  0  0  0  0  0  0  0  0  0
   -2.5897    1.8306   -0.7844 C   0  0  0  0  0  0  0  0  0  0  0  0
   -3.8819    2.3270   -0.6139 C   0  0  0  0  0  0  0  0  0  0  0  0
   -4.8464    1.5546    0.0285 C   0  0  0  0  0  0  0  0  0  0  0  0
   -4.5227    0.2831    0.5030 C   0  0  0  0  0  0  0  0  0  0  0  0
   -3.2258   -0.2361    0.3436 C   0  0  0  0  0  0  0  0  0  0  0  0
   -2.8918   -1.8681    0.9515 S   0  0  0  0  0  0  0  0  0  0  0  0
   -1.5751   -1.8314    2.0684 N   0  0  0  0  0  1  0  0  0  0  0  0
   -2.5580   -2.7764   -0.1981 O   0  0  0  0  0  0  0  0  0  0  0  0
   -4.0979   -2.4165    1.6614 O   0  0  0  0  0  0  0  0  0  0  0  0
    1.9684   -0.9099    1.0272 C   0  0  0  0  0  0  0  0  0  0  0  0
    3.2733   -1.3734    0.8353 C   0  0  0  0  0  0  0  0  0  0  0  0
    5.6140   -2.2789   -0.0925 H   0  0  0  0  0  0  0  0  0  0  0  0
    6.2034   -0.6927    0.5456 H   0  0  0  0  0  0  0  0  0  0  0  0
    5.9295   -0.9215   -1.2274 H   0  0  0  0  0  0  0  0  0  0  0  0
    4.3612    0.9976   -1.3591 H   0  0  0  0  0  0  0  0  0  0  0  0
    2.0627    1.8061   -1.0311 H   0  0  0  0  0  0  0  0  0  0  0  0
   -0.2530    0.4700    1.5644 H   0  0  0  0  0  0  0  0  0  0  0  0
    0.0743    1.8328    0.4561 H   0  0  0  0  0  0  0  0  0  0  0  0
   -0.7229   -1.0094   -0.4749 H   0  0  0  0  0  0  0  0  0  0  0  0
   -0.4666    0.3979   -1.5221 H   0  0  0  0  0  0  0  0  0  0  0  0
   -1.8530    2.4503   -1.2814 H   0  0  0  0  0  0  0  0  0  0  0  0
   -4.1350    3.3140   -0.9792 H   0  0  0  0  0  0  0  0  0  0  0  0
   -5.8488    1.9416    0.1591 H   0  0  0  0  0  0  0  0  0  0  0  0
   -5.2933   -0.2955    0.9949 H   0  0  0  0  0  0  0  0  0  0  0  0
    1.3070   -1.4503    1.6927 H   0  0  0  0  0  0  0  0  0  0  0  0
    3.6045   -2.2587    1.3640 H   0  0  0  0  0  0  0  0  0  0  0  0
  1  2  1  0
  2  3  1  0
  3  4  2  0
  4  5  1  0
  5  6  1  0
  6  7  1  0
  7  8  1  0
  8  9  2  0
  9 10  1  0
 10 11  2  0
 11 12  1  0
 12 13  2  0
 13 14  1  0
 14 15  1  0
 14 16  2  0
 14 17  2  0
  5 18  2  0
 18 19  1  0
 19  2  2  0
 13  8  1  0
  1 20  1  0
  1 21  1  0
  1 22  1  0
  3 23  1  0
  4 24  1  0
  6 25  1  0
  6 26  1  0
  7 27  1  0
  7 28  1  0
  9 29  1  0
 10 30  1  0
 11 31  1  0
 12 32  1  0
 18 33  1  0
 19 34  1  0
M  RAD  1  15   3
M  END
$$$$
