
     RDKit          3D

 34 35  0  0  0  0  0  0  0  0999 V2000
    4.5733    1.0449    1.3036 C   0  0  0  0  0  0  0  0  0  0  0  0
    3.3918    0.5012    0.5566 C   0  0  0  0  0  0  0  0  0  0  0  0
    2.4253    1.3724    0.0321 C   0  0  0  0  0  0  0  0  0  0  0  0
    1.3419    0.8690   -0.6934 C   0  0  0  0  0  0  0  0  0  0  0  0
    1.2183   -0.5120   -0.9165 C   0  0  0  0  0  0  0  0  0  0  0  0
    0.0286   -1.0613   -1.6616 C   0  0  0  0  0  0  0  0  0  0  0  0
   -1.0323   -1.6442   -0.7132 C   0  0  0  0  0  0  0  0  0  0  0  0
   -1.7276   -0.5689    0.0979 C   0  0  0  0  0  0  0  0  0  0  0  0
   -1.1135   -0.1422    1.2909 C   0  0  0  0  0  0  0  0  0  0  0  0
   -1.6692    0.8832    2.0547 C   0  0  0  0  0  0  0  0  0  0  0  0
   -2.8509    1.4952    1.6455 C   0  0  0  0  0  0  0  0  0  0  0  0
   -3.4863    1.0779    0.4757 C   0  0  0  0  0  0  0  0  0  0  0  0
   -2.9430    0.0466   -0.3109 C   0  0  0  0  0  0  0  0  0  0  0  0
   -3.8460   -0.4795   -1.7450 S   0  0  0  0  0  0  0  0  0  0  0  0
   -2.8704   -0.3411   -3.1628 N   0  0  0  0  0  1  0  0  0  0  0  0
   -5.0688    0.3748   -1.9305 O   0  0  0  0  0  0  0  0  0  0  0  0
   -4.2835   -1.9062   -1.5683 O   0  0  0  0  0  0  0  0  0  0  0  0
    2.1933   -1.3813   -0.4030 C   0  0  0  0  0  0  0  0  0  0  0  0
    3.2774   -0.8772    0.3212 C   0  0  0  0  0  0  0  0  0  0  0  0
    5.3927    1.2654    0.5880 H   0  0  0  0  0  0  0  0  0  0  0  0
    4.3011    1.9779    1.8417 H   0  0  0  0  0  0  0  0  0  0  0  0
    4.9351    0.3096    2.0536 H   0  0  0  0  0  0  0  0  0  0  0  0
    2.5076    2.4409    0.1889 H   0  0  0  0  0  0  0  0  0  0  0  0
    0.5952    1.5550   -1.0739 H   0  0  0  0  0  0  0  0  0  0  0  0
    0.3737   -1.8649   -2.3480 H   0  0  0  0  0  0  0  0  0  0  0  0
   -0.4209   -0.2709   -2.2984 H   0  0  0  0  0  0  0  0  0  0  0  0
   -0.5546   -2.3810   -0.0302 H   0  0  0  0  0  0  0  0  0  0  0  0
   -1.7611   -2.2290   -1.3071 H   0  0  0  0  0  0  0  0  0  0  0  0
   -0.1908   -0.5996    1.6268 H   0  0  0  0  0  0  0  0  0  0  0  0
   -1.1805    1.2053    2.9652 H   0  0  0  0  0  0  0  0  0  0  0  0
   -3.2811    2.2905    2.2405 H   0  0  0  0  0  0  0  0  0  0  0  0
   -4.4115    1.5613    0.1916 H   0  0  0  0  0  0  0  0  0  0  0  0
    2.1117   -2.4495   -0.5623 H   0  0  0  0  0  0  0  0  0  0  0  0
    4.0248   -1.5622    0.7022 H   0  0  0  0  0  0  0  0  0  0  0  0
  1  2  1  0
  2  3  1  0
  3  4  2  0
  4  5  1  0
  5  6  1  0
  6  7  1  0
  7  8  1  0
  8  9  2  0
  9 10  1  0
 10 11  2  0
 11 12  1  0
 12 13  2  0
 13 14  1  0
 14 15  1  0
 14 16  2  0
 14 17  2  0
  5 18  2  0
 18 19  1  0
 19  2  2  0
 13  8  1  0
  1 20  1  0
  1 21  1  0
  1 22  1  0
  3 23  1  0
  4 24  1  0
  6 25  1  0
  6 26  1  0
  7 27  1  0
  7 28  1  0
  9 29  1  0
 10 30  1  0
 11 31  1  0
 12 32  1  0
 18 33  1  0
 19 34  1  0
M  RAD  1  15   3
M  END
$$$$
