
     RDKit          3D

 34 35  0  0  0  0  0  0  0  0999 V2000
    4.6746    1.3047    0.0465 C   0  0  0  0  0  0  0  0  0  0  0  0
    3.4204    0.4904    0.1631 C   0  0  0  0  0  0  0  0  0  0  0  0
    3.2827   -0.7035   -0.5609 C   0  0  0  0  0  0  0  0  0  0  0  0
    2.1277   -1.4796   -0.4279 C   0  0  0  0  0  0  0  0  0  0  0  0
    1.1029   -1.0814    0.4446 C   0  0  0  0  0  0  0  0  0  0  0  0
   -0.1603   -1.8966    0.5538 C   0  0  0  0  0  0  0  0  0  0  0  0
   -1.1170   -1.6418   -0.6226 C   0  0  0  0  0  0  0  0  0  0  0  0
   -1.6954   -0.2412   -0.5967 C   0  0  0  0  0  0  0  0  0  0  0  0
   -0.9596    0.7887   -1.2132 C   0  0  0  0  0  0  0  0  0  0  0  0
   -1.4108    2.1075   -1.1812 C   0  0  0  0  0  0  0  0  0  0  0  0
   -2.6065    2.4197   -0.5399 C   0  0  0  0  0  0  0  0  0  0  0  0
   -3.3586    1.4136    0.0673 C   0  0  0  0  0  0  0  0  0  0  0  0
   -2.9205    0.0779    0.0513 C   0  0  0  0  0  0  0  0  0  0  0  0
   -3.9558   -1.1578    0.7915 S   0  0  0  0  0  0  0  0  0  0  0  0
   -5.3030   -0.4255    1.5897 N   0  0  0  0  0  1  0  0  0  0  0  0
   -3.1811   -1.9479    1.8070 O   0  0  0  0  0  0  0  0  0  0  0  0
   -4.4762   -2.0793   -0.2752 O   0  0  0  0  0  0  0  0  0  0  0  0
    1.2481    0.1063    1.1797 C   0  0  0  0  0  0  0  0  0  0  0  0
    2.4025    0.8827    1.0453 C   0  0  0  0  0  0  0  0  0  0  0  0
    5.4125    0.9555    0.7986 H   0  0  0  0  0  0  0  0  0  0  0  0
    5.1152    1.2027   -0.9681 H   0  0  0  0  0  0  0  0  0  0  0  0
    4.4606    2.3807    0.2208 H   0  0  0  0  0  0  0  0  0  0  0  0
    4.0671   -1.0312   -1.2320 H   0  0  0  0  0  0  0  0  0  0  0  0
    2.0301   -2.3900   -1.0063 H   0  0  0  0  0  0  0  0  0  0  0  0
    0.1067   -2.9757    0.5691 H   0  0  0  0  0  0  0  0  0  0  0  0
   -0.6709   -1.6825    1.5161 H   0  0  0  0  0  0  0  0  0  0  0  0
   -1.9217   -2.4030   -0.6053 H   0  0  0  0  0  0  0  0  0  0  0  0
   -0.5773   -1.8099   -1.5808 H   0  0  0  0  0  0  0  0  0  0  0  0
   -0.0239    0.5704   -1.7134 H   0  0  0  0  0  0  0  0  0  0  0  0
   -0.8304    2.8893   -1.6540 H   0  0  0  0  0  0  0  0  0  0  0  0
   -2.9560    3.4439   -0.5182 H   0  0  0  0  0  0  0  0  0  0  0  0
   -4.2900    1.6854    0.5449 H   0  0  0  0  0  0  0  0  0  0  0  0
    0.4640    0.4353    1.8505 H   0  0  0  0  0  0  0  0  0  0  0  0
    2.5000    1.7922    1.6251 H   0  0  0  0  0  0  0  0  0  0  0  0
  1  2  1  0
  2  3  1  0
  3  4  2  0
  4  5  1  0
  5  6  1  0
  6  7  1  0
  7  8  1  0
  8  9  2  0
  9 10  1  0
 10 11  2  0
 11 12  1  0
 12 13  2  0
 13 14  1  0
 14 15  1  0
 14 16  2  0
 14 17  2  0
  5 18  2  0
 18 19  1  0
 19  2  2  0
 13  8  1  0
  1 20  1  0
  1 21  1  0
  1 22  1  0
  3 23  1  0
  4 24  1  0
  6 25  1  0
  6 26  1  0
  7 27  1  0
  7 28  1  0
  9 29  1  0
 10 30  1  0
 11 31  1  0
 12 32  1  0
 18 33  1  0
 19 34  1  0
M  RAD  1  15   3
M  END
$$$$
