
     RDKit          3D

 34 35  0  0  0  0  0  0  0  0999 V2000
    4.6017   -1.2536   -1.0157 C   0  0  0  0  0  0  0  0  0  0  0  0
    3.4328   -0.5341   -0.4110 C   0  0  0  0  0  0  0  0  0  0  0  0
    2.5368    0.1706   -1.2289 C   0  0  0  0  0  0  0  0  0  0  0  0
    1.4250    0.8079   -0.6711 C   0  0  0  0  0  0  0  0  0  0  0  0
    1.1878    0.7392    0.7114 C   0  0  0  0  0  0  0  0  0  0  0  0
   -0.0345    1.3880    1.3091 C   0  0  0  0  0  0  0  0  0  0  0  0
   -1.1565    0.3726    1.5836 C   0  0  0  0  0  0  0  0  0  0  0  0
   -1.7660   -0.1668    0.3049 C   0  0  0  0  0  0  0  0  0  0  0  0
   -1.1347   -1.2616   -0.3159 C   0  0  0  0  0  0  0  0  0  0  0  0
   -1.6088   -1.7701   -1.5243 C   0  0  0  0  0  0  0  0  0  0  0  0
   -2.7253   -1.2002   -2.1301 C   0  0  0  0  0  0  0  0  0  0  0  0
   -3.3775   -0.1255   -1.5251 C   0  0  0  0  0  0  0  0  0  0  0  0
   -2.9160    0.4045   -0.3072 C   0  0  0  0  0  0  0  0  0  0  0  0
   -3.8406    1.7227    0.4385 S   0  0  0  0  0  0  0  0  0  0  0  0
   -2.8359    3.1043    0.6897 N   0  0  0  0  0  1  0  0  0  0  0  0
   -4.9806    2.1265   -0.4542 O   0  0  0  0  0  0  0  0  0  0  0  0
   -4.4046    1.2607    1.7525 O   0  0  0  0  0  0  0  0  0  0  0  0
    2.0729    0.0154    1.5255 C   0  0  0  0  0  0  0  0  0  0  0  0
    3.1856   -0.6206    0.9674 C   0  0  0  0  0  0  0  0  0  0  0  0
    4.2957   -2.2826   -1.2978 H   0  0  0  0  0  0  0  0  0  0  0  0
    4.9631   -0.7216   -1.9214 H   0  0  0  0  0  0  0  0  0  0  0  0
    5.4432   -1.3109   -0.2927 H   0  0  0  0  0  0  0  0  0  0  0  0
    2.6968    0.2237   -2.2987 H   0  0  0  0  0  0  0  0  0  0  0  0
    0.7405    1.3416   -1.3190 H   0  0  0  0  0  0  0  0  0  0  0  0
   -0.4034    2.1941    0.6410 H   0  0  0  0  0  0  0  0  0  0  0  0
    0.2489    1.8741    2.2679 H   0  0  0  0  0  0  0  0  0  0  0  0
   -0.7557   -0.4673    2.1930 H   0  0  0  0  0  0  0  0  0  0  0  0
   -1.9253    0.8518    2.2200 H   0  0  0  0  0  0  0  0  0  0  0  0
   -0.2613   -1.7182    0.1338 H   0  0  0  0  0  0  0  0  0  0  0  0
   -1.1073   -2.6070   -1.9929 H   0  0  0  0  0  0  0  0  0  0  0  0
   -3.0923   -1.5972   -3.0678 H   0  0  0  0  0  0  0  0  0  0  0  0
   -4.2519    0.2861   -2.0114 H   0  0  0  0  0  0  0  0  0  0  0  0
    1.8952   -0.0636    2.5909 H   0  0  0  0  0  0  0  0  0  0  0  0
    3.8522   -1.1829    1.6096 H   0  0  0  0  0  0  0  0  0  0  0  0
  1  2  1  0
  2  3  1  0
  3  4  2  0
  4  5  1  0
  5  6  1  0
  6  7  1  0
  7  8  1  0
  8  9  2  0
  9 10  1  0
 10 11  2  0
 11 12  1  0
 12 13  2  0
 13 14  1  0
 14 15  1  0
 14 16  2  0
 14 17  2  0
  5 18  2  0
 18 19  1  0
 19  2  2  0
 13  8  1  0
  1 20  1  0
  1 21  1  0
  1 22  1  0
  3 23  1  0
  4 24  1  0
  6 25  1  0
  6 26  1  0
  7 27  1  0
  7 28  1  0
  9 29  1  0
 10 30  1  0
 11 31  1  0
 12 32  1  0
 18 33  1  0
 19 34  1  0
M  RAD  1  15   3
M  END
$$$$
