
     RDKit          3D

 40 41  0  0  0  0  0  0  0  0999 V2000
    4.2380    0.8020    1.2455 C   0  0  0  0  0  0  0  0  0  0  0  0
    3.6216   -0.1333    0.1824 C   0  0  0  0  0  0  0  0  0  0  0  0
    3.6774   -1.5913    0.6880 C   0  0  0  0  0  0  0  0  0  0  0  0
    4.5001   -0.0427   -1.0886 C   0  0  0  0  0  0  0  0  0  0  0  0
    2.1530    0.2684   -0.0671 C   0  0  0  0  0  0  0  0  0  0  0  0
    1.2305    0.2387    1.0024 C   0  0  0  0  0  0  0  0  0  0  0  0
   -0.1070    0.5930    0.8135 C   0  0  0  0  0  0  0  0  0  0  0  0
   -0.5654    0.9900   -0.4481 C   0  0  0  0  0  0  0  0  0  0  0  0
   -2.0155    1.3546   -0.6505 C   0  0  0  0  0  0  0  0  0  0  0  0
   -2.9080    0.1336   -0.5415 C   0  0  0  0  0  0  0  0  0  0  0  0
   -2.6780   -0.9311   -1.4349 C   0  0  0  0  0  0  0  0  0  0  0  0
   -3.4517   -2.0900   -1.3825 C   0  0  0  0  0  0  0  0  0  0  0  0
   -4.4757   -2.2027   -0.4462 C   0  0  0  0  0  0  0  0  0  0  0  0
   -4.7383   -1.1521    0.4331 C   0  0  0  0  0  0  0  0  0  0  0  0
   -3.9736    0.0273    0.3955 C   0  0  0  0  0  0  0  0  0  0  0  0
   -4.4073    1.3423    1.5032 S   0  0  0  0  0  0  0  0  0  0  0  0
   -3.1048    1.6505    2.5950 N   0  0  0  0  0  1  0  0  0  0  0  0
   -5.6233    0.9709    2.3050 O   0  0  0  0  0  0  0  0  0  0  0  0
   -4.7167    2.5845    0.7160 O   0  0  0  0  0  0  0  0  0  0  0  0
    0.3341    1.0218   -1.5213 C   0  0  0  0  0  0  0  0  0  0  0  0
    1.6736    0.6681   -1.3370 C   0  0  0  0  0  0  0  0  0  0  0  0
    3.7219    0.7056    2.2234 H   0  0  0  0  0  0  0  0  0  0  0  0
    4.1666    1.8612    0.9160 H   0  0  0  0  0  0  0  0  0  0  0  0
    5.3102    0.5590    1.4107 H   0  0  0  0  0  0  0  0  0  0  0  0
    4.7299   -1.9179    0.8347 H   0  0  0  0  0  0  0  0  0  0  0  0
    3.1990   -2.2737   -0.0476 H   0  0  0  0  0  0  0  0  0  0  0  0
    3.1555   -1.7066    1.6609 H   0  0  0  0  0  0  0  0  0  0  0  0
    4.1241   -0.7268   -1.8799 H   0  0  0  0  0  0  0  0  0  0  0  0
    4.5228    0.9970   -1.4811 H   0  0  0  0  0  0  0  0  0  0  0  0
    5.5486   -0.3373   -0.8650 H   0  0  0  0  0  0  0  0  0  0  0  0
    1.5395   -0.0629    1.9938 H   0  0  0  0  0  0  0  0  0  0  0  0
   -0.7879    0.5501    1.6532 H   0  0  0  0  0  0  0  0  0  0  0  0
   -2.1682    1.8107   -1.6528 H   0  0  0  0  0  0  0  0  0  0  0  0
   -2.2703    2.1427    0.0814 H   0  0  0  0  0  0  0  0  0  0  0  0
   -1.8892   -0.8653   -2.1742 H   0  0  0  0  0  0  0  0  0  0  0  0
   -3.2563   -2.9025   -2.0704 H   0  0  0  0  0  0  0  0  0  0  0  0
   -5.0747   -3.1034   -0.4068 H   0  0  0  0  0  0  0  0  0  0  0  0
   -5.5496   -1.2629    1.1402 H   0  0  0  0  0  0  0  0  0  0  0  0
   -0.0013    1.3175   -2.5078 H   0  0  0  0  0  0  0  0  0  0  0  0
    2.3165    0.7128   -2.2031 H   0  0  0  0  0  0  0  0  0  0  0  0
  1  2  1  0
  2  3  1  0
  2  4  1  0
  2  5  1  0
  5  6  1  0
  6  7  2  0
  7  8  1  0
  8  9  1  0
  9 10  1  0
 10 11  2  0
 11 12  1  0
 12 13  2  0
 13 14  1  0
 14 15  2  0
 15 16  1  0
 16 17  1  0
 16 18  2  0
 16 19  2  0
  8 20  2  0
 20 21  1  0
 21  5  2  0
 15 10  1  0
  1 22  1  0
  1 23  1  0
  1 24  1  0
  3 25  1  0
  3 26  1  0
  3 27  1  0
  4 28  1  0
  4 29  1  0
  4 30  1  0
  6 31  1  0
  7 32  1  0
  9 33  1  0
  9 34  1  0
 11 35  1  0
 12 36  1  0
 13 37  1  0
 14 38  1  0
 20 39  1  0
 21 40  1  0
M  RAD  1  17   3
M  END
$$$$
