
     RDKit          3D

 40 41  0  0  0  0  0  0  0  0999 V2000
   -3.9560    0.1915   -1.7648 C   0  0  0  0  0  0  0  0  0  0  0  0
   -3.6065    0.3637   -0.2668 C   0  0  0  0  0  0  0  0  0  0  0  0
   -3.8133    1.8506    0.0950 C   0  0  0  0  0  0  0  0  0  0  0  0
   -4.5916   -0.5039    0.5466 C   0  0  0  0  0  0  0  0  0  0  0  0
   -2.1585   -0.0503    0.0681 C   0  0  0  0  0  0  0  0  0  0  0  0
   -1.2535   -0.5288   -0.9087 C   0  0  0  0  0  0  0  0  0  0  0  0
    0.0512   -0.8910   -0.5636 C   0  0  0  0  0  0  0  0  0  0  0  0
    0.4926   -0.7899    0.7613 C   0  0  0  0  0  0  0  0  0  0  0  0
    1.9084   -1.1661    1.1223 C   0  0  0  0  0  0  0  0  0  0  0  0
    2.9016   -0.1700    0.5559 C   0  0  0  0  0  0  0  0  0  0  0  0
    2.7775    1.1776    0.9472 C   0  0  0  0  0  0  0  0  0  0  0  0
    3.6478    2.1495    0.4549 C   0  0  0  0  0  0  0  0  0  0  0  0
    4.6642    1.7927   -0.4269 C   0  0  0  0  0  0  0  0  0  0  0  0
    4.8223    0.4608   -0.8101 C   0  0  0  0  0  0  0  0  0  0  0  0
    3.9590   -0.5365   -0.3230 C   0  0  0  0  0  0  0  0  0  0  0  0
    4.2614   -2.2154   -0.8069 S   0  0  0  0  0  0  0  0  0  0  0  0
    2.9218   -2.8205   -1.7140 N   0  0  0  0  0  1  0  0  0  0  0  0
    5.4937   -2.2988   -1.6637 O   0  0  0  0  0  0  0  0  0  0  0  0
    4.4730   -3.0632    0.4159 O   0  0  0  0  0  0  0  0  0  0  0  0
   -0.3898   -0.3144    1.7392 C   0  0  0  0  0  0  0  0  0  0  0  0
   -1.6948    0.0487    1.3990 C   0  0  0  0  0  0  0  0  0  0  0  0
   -5.0065    0.4978   -1.9623 H   0  0  0  0  0  0  0  0  0  0  0  0
   -3.3000    0.8250   -2.4002 H   0  0  0  0  0  0  0  0  0  0  0  0
   -3.8549   -0.8709   -2.0756 H   0  0  0  0  0  0  0  0  0  0  0  0
   -3.0827    2.4861   -0.4509 H   0  0  0  0  0  0  0  0  0  0  0  0
   -4.8384    2.1839   -0.1772 H   0  0  0  0  0  0  0  0  0  0  0  0
   -3.6848    2.0279    1.1832 H   0  0  0  0  0  0  0  0  0  0  0  0
   -4.4266   -1.5816    0.3302 H   0  0  0  0  0  0  0  0  0  0  0  0
   -4.4706   -0.3452    1.6385 H   0  0  0  0  0  0  0  0  0  0  0  0
   -5.6436   -0.2529    0.2893 H   0  0  0  0  0  0  0  0  0  0  0  0
   -1.5322   -0.6289   -1.9468 H   0  0  0  0  0  0  0  0  0  0  0  0
    0.7217   -1.2451   -1.3355 H   0  0  0  0  0  0  0  0  0  0  0  0
    2.0834   -2.1989    0.7695 H   0  0  0  0  0  0  0  0  0  0  0  0
    2.0357   -1.1972    2.2263 H   0  0  0  0  0  0  0  0  0  0  0  0
    1.9965    1.4789    1.6346 H   0  0  0  0  0  0  0  0  0  0  0  0
    3.5333    3.1821    0.7586 H   0  0  0  0  0  0  0  0  0  0  0  0
    5.3383    2.5489   -0.8083 H   0  0  0  0  0  0  0  0  0  0  0  0
    5.6299    0.2115   -1.4854 H   0  0  0  0  0  0  0  0  0  0  0  0
   -0.0679   -0.2194    2.7689 H   0  0  0  0  0  0  0  0  0  0  0  0
   -2.3413    0.4113    2.1863 H   0  0  0  0  0  0  0  0  0  0  0  0
  1  2  1  0
  2  3  1  0
  2  4  1  0
  2  5  1  0
  5  6  1  0
  6  7  2  0
  7  8  1  0
  8  9  1  0
  9 10  1  0
 10 11  2  0
 11 12  1  0
 12 13  2  0
 13 14  1  0
 14 15  2  0
 15 16  1  0
 16 17  1  0
 16 18  2  0
 16 19  2  0
  8 20  2  0
 20 21  1  0
 21  5  2  0
 15 10  1  0
  1 22  1  0
  1 23  1  0
  1 24  1  0
  3 25  1  0
  3 26  1  0
  3 27  1  0
  4 28  1  0
  4 29  1  0
  4 30  1  0
  6 31  1  0
  7 32  1  0
  9 33  1  0
  9 34  1  0
 11 35  1  0
 12 36  1  0
 13 37  1  0
 14 38  1  0
 20 39  1  0
 21 40  1  0
M  RAD  1  17   3
M  END
$$$$
