
     RDKit          3D

 40 41  0  0  0  0  0  0  0  0999 V2000
   -4.1240    0.4355   -1.2950 C   0  0  0  0  0  0  0  0  0  0  0  0
   -3.6172    0.4077    0.1672 C   0  0  0  0  0  0  0  0  0  0  0  0
   -4.5022   -0.5860    0.9508 C   0  0  0  0  0  0  0  0  0  0  0  0
   -3.7960    1.8255    0.7524 C   0  0  0  0  0  0  0  0  0  0  0  0
   -2.1383   -0.0151    0.2870 C   0  0  0  0  0  0  0  0  0  0  0  0
   -1.5352   -0.0896    1.5625 C   0  0  0  0  0  0  0  0  0  0  0  0
   -0.1983   -0.4661    1.7097 C   0  0  0  0  0  0  0  0  0  0  0  0
    0.5779   -0.7820    0.5877 C   0  0  0  0  0  0  0  0  0  0  0  0
    2.0273   -1.1717    0.7419 C   0  0  0  0  0  0  0  0  0  0  0  0
    2.9458   -0.0846    0.2185 C   0  0  0  0  0  0  0  0  0  0  0  0
    2.8534    1.1931    0.8046 C   0  0  0  0  0  0  0  0  0  0  0  0
    3.6579    2.2433    0.3638 C   0  0  0  0  0  0  0  0  0  0  0  0
    4.5767    2.0347   -0.6610 C   0  0  0  0  0  0  0  0  0  0  0  0
    4.7036    0.7722   -1.2405 C   0  0  0  0  0  0  0  0  0  0  0  0
    3.9057   -0.3022   -0.8091 C   0  0  0  0  0  0  0  0  0  0  0  0
    4.1681   -1.8912   -1.5513 S   0  0  0  0  0  0  0  0  0  0  0  0
    2.7438   -2.3962   -2.3879 N   0  0  0  0  0  1  0  0  0  0  0  0
    4.5166   -2.8941   -0.4877 O   0  0  0  0  0  0  0  0  0  0  0  0
    5.3019   -1.8274   -2.5361 O   0  0  0  0  0  0  0  0  0  0  0  0
   -0.0023   -0.7099   -0.6845 C   0  0  0  0  0  0  0  0  0  0  0  0
   -1.3395   -0.3336   -0.8366 C   0  0  0  0  0  0  0  0  0  0  0  0
   -4.0482   -0.5714   -1.7597 H   0  0  0  0  0  0  0  0  0  0  0  0
   -3.5451    1.1653   -1.9014 H   0  0  0  0  0  0  0  0  0  0  0  0
   -5.1920    0.7418   -1.3364 H   0  0  0  0  0  0  0  0  0  0  0  0
   -4.2660   -0.5764    2.0354 H   0  0  0  0  0  0  0  0  0  0  0  0
   -4.3526   -1.6196    0.5702 H   0  0  0  0  0  0  0  0  0  0  0  0
   -5.5777   -0.3261    0.8431 H   0  0  0  0  0  0  0  0  0  0  0  0
   -3.1334    2.5467    0.2267 H   0  0  0  0  0  0  0  0  0  0  0  0
   -3.5529    1.8542    1.8350 H   0  0  0  0  0  0  0  0  0  0  0  0
   -4.8471    2.1694    0.6386 H   0  0  0  0  0  0  0  0  0  0  0  0
   -2.0964    0.1462    2.4562 H   0  0  0  0  0  0  0  0  0  0  0  0
    0.2315   -0.5063    2.7030 H   0  0  0  0  0  0  0  0  0  0  0  0
    2.2726   -1.3516    1.8113 H   0  0  0  0  0  0  0  0  0  0  0  0
    2.1717   -2.1418    0.2322 H   0  0  0  0  0  0  0  0  0  0  0  0
    2.1483    1.3788    1.6056 H   0  0  0  0  0  0  0  0  0  0  0  0
    3.5683    3.2213    0.8188 H   0  0  0  0  0  0  0  0  0  0  0  0
    5.1998    2.8514   -1.0021 H   0  0  0  0  0  0  0  0  0  0  0  0
    5.4361    0.6369   -2.0251 H   0  0  0  0  0  0  0  0  0  0  0  0
    0.5843   -0.9388   -1.5644 H   0  0  0  0  0  0  0  0  0  0  0  0
   -1.7271   -0.2962   -1.8434 H   0  0  0  0  0  0  0  0  0  0  0  0
  1  2  1  0
  2  3  1  0
  2  4  1  0
  2  5  1  0
  5  6  1  0
  6  7  2  0
  7  8  1  0
  8  9  1  0
  9 10  1  0
 10 11  2  0
 11 12  1  0
 12 13  2  0
 13 14  1  0
 14 15  2  0
 15 16  1  0
 16 17  1  0
 16 18  2  0
 16 19  2  0
  8 20  2  0
 20 21  1  0
 21  5  2  0
 15 10  1  0
  1 22  1  0
  1 23  1  0
  1 24  1  0
  3 25  1  0
  3 26  1  0
  3 27  1  0
  4 28  1  0
  4 29  1  0
  4 30  1  0
  6 31  1  0
  7 32  1  0
  9 33  1  0
  9 34  1  0
 11 35  1  0
 12 36  1  0
 13 37  1  0
 14 38  1  0
 20 39  1  0
 21 40  1  0
M  RAD  1  17   3
M  END
$$$$
