
     RDKit          3D

 40 41  0  0  0  0  0  0  0  0999 V2000
   -3.7878    1.8147    0.4589 C   0  0  0  0  0  0  0  0  0  0  0  0
   -3.6106    0.4143   -0.1671 C   0  0  0  0  0  0  0  0  0  0  0  0
   -4.0224    0.5096   -1.6561 C   0  0  0  0  0  0  0  0  0  0  0  0
   -4.5703   -0.5805    0.5215 C   0  0  0  0  0  0  0  0  0  0  0  0
   -2.1544   -0.0559    0.0290 C   0  0  0  0  0  0  0  0  0  0  0  0
   -1.6359   -0.1940    1.3360 C   0  0  0  0  0  0  0  0  0  0  0  0
   -0.3218   -0.6148    1.5523 C   0  0  0  0  0  0  0  0  0  0  0  0
    0.5153   -0.9129    0.4699 C   0  0  0  0  0  0  0  0  0  0  0  0
    1.9409   -1.3504    0.6997 C   0  0  0  0  0  0  0  0  0  0  0  0
    2.9200   -0.2728    0.2762 C   0  0  0  0  0  0  0  0  0  0  0  0
    2.8252    0.9853    0.9033 C   0  0  0  0  0  0  0  0  0  0  0  0
    3.6844    2.0264    0.5536 C   0  0  0  0  0  0  0  0  0  0  0  0
    4.6605    1.8279   -0.4188 C   0  0  0  0  0  0  0  0  0  0  0  0
    4.7897    0.5839   -1.0365 C   0  0  0  0  0  0  0  0  0  0  0  0
    3.9371   -0.4814   -0.6967 C   0  0  0  0  0  0  0  0  0  0  0  0
    4.2029   -2.0497   -1.4805 S   0  0  0  0  0  0  0  0  0  0  0  0
    2.8217   -2.4821   -2.4232 N   0  0  0  0  0  1  0  0  0  0  0  0
    4.4557   -3.1001   -0.4359 O   0  0  0  0  0  0  0  0  0  0  0  0
    5.3985   -1.9840   -2.3893 O   0  0  0  0  0  0  0  0  0  0  0  0
    0.0194   -0.7780   -0.8325 C   0  0  0  0  0  0  0  0  0  0  0  0
   -1.2946   -0.3573   -1.0537 C   0  0  0  0  0  0  0  0  0  0  0  0
   -3.0738    2.5346    0.0033 H   0  0  0  0  0  0  0  0  0  0  0  0
   -4.8198    2.1934    0.2926 H   0  0  0  0  0  0  0  0  0  0  0  0
   -3.6134    1.7973    1.5549 H   0  0  0  0  0  0  0  0  0  0  0  0
   -3.9445   -0.4818   -2.1528 H   0  0  0  0  0  0  0  0  0  0  0  0
   -5.0770    0.8486   -1.7526 H   0  0  0  0  0  0  0  0  0  0  0  0
   -3.3865    1.2434   -2.1970 H   0  0  0  0  0  0  0  0  0  0  0  0
   -4.4035   -0.6168    1.6183 H   0  0  0  0  0  0  0  0  0  0  0  0
   -4.4249   -1.6037    0.1122 H   0  0  0  0  0  0  0  0  0  0  0  0
   -5.6294   -0.2853    0.3565 H   0  0  0  0  0  0  0  0  0  0  0  0
   -2.2463    0.0259    2.2011 H   0  0  0  0  0  0  0  0  0  0  0  0
    0.0427   -0.7034    2.5682 H   0  0  0  0  0  0  0  0  0  0  0  0
    2.1127   -1.5758    1.7748 H   0  0  0  0  0  0  0  0  0  0  0  0
    2.0911   -2.3054    0.1637 H   0  0  0  0  0  0  0  0  0  0  0  0
    2.0759    1.1627    1.6650 H   0  0  0  0  0  0  0  0  0  0  0  0
    3.5926    2.9897    1.0387 H   0  0  0  0  0  0  0  0  0  0  0  0
    5.3260    2.6376   -0.6892 H   0  0  0  0  0  0  0  0  0  0  0  0
    5.5667    0.4553   -1.7783 H   0  0  0  0  0  0  0  0  0  0  0  0
    0.6544   -0.9923   -1.6819 H   0  0  0  0  0  0  0  0  0  0  0  0
   -1.6163   -0.2723   -2.0807 H   0  0  0  0  0  0  0  0  0  0  0  0
  1  2  1  0
  2  3  1  0
  2  4  1  0
  2  5  1  0
  5  6  1  0
  6  7  2  0
  7  8  1  0
  8  9  1  0
  9 10  1  0
 10 11  2  0
 11 12  1  0
 12 13  2  0
 13 14  1  0
 14 15  2  0
 15 16  1  0
 16 17  1  0
 16 18  2  0
 16 19  2  0
  8 20  2  0
 20 21  1  0
 21  5  2  0
 15 10  1  0
  1 22  1  0
  1 23  1  0
  1 24  1  0
  3 25  1  0
  3 26  1  0
  3 27  1  0
  4 28  1  0
  4 29  1  0
  4 30  1  0
  6 31  1  0
  7 32  1  0
  9 33  1  0
  9 34  1  0
 11 35  1  0
 12 36  1  0
 13 37  1  0
 14 38  1  0
 20 39  1  0
 21 40  1  0
M  RAD  1  17   3
M  END
$$$$
