
     RDKit          3D

 40 41  0  0  0  0  0  0  0  0999 V2000
   -3.9098    0.5094   -1.5286 C   0  0  0  0  0  0  0  0  0  0  0  0
   -3.4673   -0.3567   -0.3246 C   0  0  0  0  0  0  0  0  0  0  0  0
   -3.5317   -1.8360   -0.7635 C   0  0  0  0  0  0  0  0  0  0  0  0
   -4.4746   -0.1173    0.8210 C   0  0  0  0  0  0  0  0  0  0  0  0
   -2.0423   -0.0277    0.1662 C   0  0  0  0  0  0  0  0  0  0  0  0
   -1.2410    0.9765   -0.4265 C   0  0  0  0  0  0  0  0  0  0  0  0
    0.0483    1.2384    0.0440 C   0  0  0  0  0  0  0  0  0  0  0  0
    0.5846    0.4987    1.1070 C   0  0  0  0  0  0  0  0  0  0  0  0
    1.9683    0.7948    1.6300 C   0  0  0  0  0  0  0  0  0  0  0  0
    3.0119    0.7883    0.5303 C   0  0  0  0  0  0  0  0  0  0  0  0
    3.5277    2.0270    0.1022 C   0  0  0  0  0  0  0  0  0  0  0  0
    4.4755    2.0935   -0.9184 C   0  0  0  0  0  0  0  0  0  0  0  0
    4.9206    0.9269   -1.5334 C   0  0  0  0  0  0  0  0  0  0  0  0
    4.4204   -0.3111   -1.1303 C   0  0  0  0  0  0  0  0  0  0  0  0
    3.4704   -0.4038   -0.0981 C   0  0  0  0  0  0  0  0  0  0  0  0
    2.8643   -2.0147    0.3341 S   0  0  0  0  0  0  0  0  0  0  0  0
    3.8683   -3.2381   -0.3613 N   0  0  0  0  0  1  0  0  0  0  0  0
    2.8727   -2.2040    1.8241 O   0  0  0  0  0  0  0  0  0  0  0  0
    1.4683   -2.1869   -0.1929 O   0  0  0  0  0  0  0  0  0  0  0  0
   -0.2085   -0.4776    1.7230 C   0  0  0  0  0  0  0  0  0  0  0  0
   -1.4974   -0.7428    1.2556 C   0  0  0  0  0  0  0  0  0  0  0  0
   -4.9375    0.2369   -1.8538 H   0  0  0  0  0  0  0  0  0  0  0  0
   -3.2335    0.3552   -2.3972 H   0  0  0  0  0  0  0  0  0  0  0  0
   -3.9219    1.5875   -1.2583 H   0  0  0  0  0  0  0  0  0  0  0  0
   -4.5386   -2.0856   -1.1631 H   0  0  0  0  0  0  0  0  0  0  0  0
   -3.3324   -2.5233    0.0850 H   0  0  0  0  0  0  0  0  0  0  0  0
   -2.7808   -2.0360   -1.5583 H   0  0  0  0  0  0  0  0  0  0  0  0
   -4.2808   -0.7899    1.6825 H   0  0  0  0  0  0  0  0  0  0  0  0
   -4.4112    0.9336    1.1776 H   0  0  0  0  0  0  0  0  0  0  0  0
   -5.5147   -0.3078    0.4779 H   0  0  0  0  0  0  0  0  0  0  0  0
   -1.5918    1.5737   -1.2546 H   0  0  0  0  0  0  0  0  0  0  0  0
    0.6308    2.0205   -0.4267 H   0  0  0  0  0  0  0  0  0  0  0  0
    2.2633    0.0842    2.4274 H   0  0  0  0  0  0  0  0  0  0  0  0
    1.9342    1.7867    2.1309 H   0  0  0  0  0  0  0  0  0  0  0  0
    3.1906    2.9507    0.5565 H   0  0  0  0  0  0  0  0  0  0  0  0
    4.8619    3.0533   -1.2362 H   0  0  0  0  0  0  0  0  0  0  0  0
    5.6522    0.9814   -2.3294 H   0  0  0  0  0  0  0  0  0  0  0  0
    4.7760   -1.1983   -1.6363 H   0  0  0  0  0  0  0  0  0  0  0  0
    0.1736   -1.0454    2.5623 H   0  0  0  0  0  0  0  0  0  0  0  0
   -2.0682   -1.5142    1.7542 H   0  0  0  0  0  0  0  0  0  0  0  0
  1  2  1  0
  2  3  1  0
  2  4  1  0
  2  5  1  0
  5  6  1  0
  6  7  2  0
  7  8  1  0
  8  9  1  0
  9 10  1  0
 10 11  2  0
 11 12  1  0
 12 13  2  0
 13 14  1  0
 14 15  2  0
 15 16  1  0
 16 17  1  0
 16 18  2  0
 16 19  2  0
  8 20  2  0
 20 21  1  0
 21  5  2  0
 15 10  1  0
  1 22  1  0
  1 23  1  0
  1 24  1  0
  3 25  1  0
  3 26  1  0
  3 27  1  0
  4 28  1  0
  4 29  1  0
  4 30  1  0
  6 31  1  0
  7 32  1  0
  9 33  1  0
  9 34  1  0
 11 35  1  0
 12 36  1  0
 13 37  1  0
 14 38  1  0
 20 39  1  0
 21 40  1  0
M  RAD  1  17   3
M  END
$$$$
