
     RDKit          3D

 40 41  0  0  0  0  0  0  0  0999 V2000
   -3.9740    1.3449   -0.4650 C   0  0  0  0  0  0  0  0  0  0  0  0
   -3.5004   -0.0405    0.0369 C   0  0  0  0  0  0  0  0  0  0  0  0
   -4.3729   -0.4227    1.2522 C   0  0  0  0  0  0  0  0  0  0  0  0
   -3.7346   -1.0562   -1.1026 C   0  0  0  0  0  0  0  0  0  0  0  0
   -2.0128   -0.0599    0.4451 C   0  0  0  0  0  0  0  0  0  0  0  0
   -1.1844    1.0848    0.3749 C   0  0  0  0  0  0  0  0  0  0  0  0
    0.1608    1.0228    0.7477 C   0  0  0  0  0  0  0  0  0  0  0  0
    0.7256   -0.1829    1.1859 C   0  0  0  0  0  0  0  0  0  0  0  0
    2.1723   -0.2463    1.6090 C   0  0  0  0  0  0  0  0  0  0  0  0
    3.1055    0.3075    0.5503 C   0  0  0  0  0  0  0  0  0  0  0  0
    3.6865    1.5703    0.7776 C   0  0  0  0  0  0  0  0  0  0  0  0
    4.5385    2.1461   -0.1641 C   0  0  0  0  0  0  0  0  0  0  0  0
    4.8208    1.4758   -1.3508 C   0  0  0  0  0  0  0  0  0  0  0  0
    4.2530    0.2266   -1.6007 C   0  0  0  0  0  0  0  0  0  0  0  0
    3.3976   -0.3777   -0.6627 C   0  0  0  0  0  0  0  0  0  0  0  0
    2.6948   -1.9551   -1.0712 S   0  0  0  0  0  0  0  0  0  0  0  0
    3.5190   -2.6449   -2.4250 N   0  0  0  0  0  1  0  0  0  0  0  0
    1.2464   -1.7844   -1.4309 O   0  0  0  0  0  0  0  0  0  0  0  0
    2.8237   -2.9093    0.0817 O   0  0  0  0  0  0  0  0  0  0  0  0
   -0.0901   -1.3167    1.2893 C   0  0  0  0  0  0  0  0  0  0  0  0
   -1.4349   -1.2592    0.9174 C   0  0  0  0  0  0  0  0  0  0  0  0
   -3.3968    1.6600   -1.3611 H   0  0  0  0  0  0  0  0  0  0  0  0
   -3.8664    2.1131    0.3311 H   0  0  0  0  0  0  0  0  0  0  0  0
   -5.0473    1.3139   -0.7538 H   0  0  0  0  0  0  0  0  0  0  0  0
   -5.4529   -0.3746    0.9930 H   0  0  0  0  0  0  0  0  0  0  0  0
   -4.1848    0.2745    2.0972 H   0  0  0  0  0  0  0  0  0  0  0  0
   -4.1604   -1.4556    1.5987 H   0  0  0  0  0  0  0  0  0  0  0  0
   -4.7921   -1.0288   -1.4445 H   0  0  0  0  0  0  0  0  0  0  0  0
   -3.0806   -0.8210   -1.9701 H   0  0  0  0  0  0  0  0  0  0  0  0
   -3.5191   -2.0948   -0.7753 H   0  0  0  0  0  0  0  0  0  0  0  0
   -1.5561    2.0401    0.0363 H   0  0  0  0  0  0  0  0  0  0  0  0
    0.7639    1.9203    0.6906 H   0  0  0  0  0  0  0  0  0  0  0  0
    2.2718    0.3267    2.5565 H   0  0  0  0  0  0  0  0  0  0  0  0
    2.4758   -1.2798    1.8691 H   0  0  0  0  0  0  0  0  0  0  0  0
    3.4752    2.1180    1.6878 H   0  0  0  0  0  0  0  0  0  0  0  0
    4.9768    3.1175    0.0253 H   0  0  0  0  0  0  0  0  0  0  0  0
    5.4779    1.9274   -2.0829 H   0  0  0  0  0  0  0  0  0  0  0  0
    4.4811   -0.2633   -2.5375 H   0  0  0  0  0  0  0  0  0  0  0  0
    0.3163   -2.2539    1.6489 H   0  0  0  0  0  0  0  0  0  0  0  0
   -2.0228   -2.1628    1.0021 H   0  0  0  0  0  0  0  0  0  0  0  0
  1  2  1  0
  2  3  1  0
  2  4  1  0
  2  5  1  0
  5  6  1  0
  6  7  2  0
  7  8  1  0
  8  9  1  0
  9 10  1  0
 10 11  2  0
 11 12  1  0
 12 13  2  0
 13 14  1  0
 14 15  2  0
 15 16  1  0
 16 17  1  0
 16 18  2  0
 16 19  2  0
  8 20  2  0
 20 21  1  0
 21  5  2  0
 15 10  1  0
  1 22  1  0
  1 23  1  0
  1 24  1  0
  3 25  1  0
  3 26  1  0
  3 27  1  0
  4 28  1  0
  4 29  1  0
  4 30  1  0
  6 31  1  0
  7 32  1  0
  9 33  1  0
  9 34  1  0
 11 35  1  0
 12 36  1  0
 13 37  1  0
 14 38  1  0
 20 39  1  0
 21 40  1  0
M  RAD  1  17   3
M  END
$$$$
