
     RDKit          3D

 40 41  0  0  0  0  0  0  0  0999 V2000
   -4.4834   -0.1729    0.7613 C   0  0  0  0  0  0  0  0  0  0  0  0
   -3.4698   -0.2303   -0.4021 C   0  0  0  0  0  0  0  0  0  0  0  0
   -3.5558   -1.6105   -1.0896 C   0  0  0  0  0  0  0  0  0  0  0  0
   -3.8859    0.8382   -1.4416 C   0  0  0  0  0  0  0  0  0  0  0  0
   -2.0439   -0.0175    0.1469 C   0  0  0  0  0  0  0  0  0  0  0  0
   -1.5218   -0.9196    1.1003 C   0  0  0  0  0  0  0  0  0  0  0  0
   -0.2330   -0.7630    1.6144 C   0  0  0  0  0  0  0  0  0  0  0  0
    0.5827    0.2897    1.1808 C   0  0  0  0  0  0  0  0  0  0  0  0
    1.9665    0.4653    1.7556 C   0  0  0  0  0  0  0  0  0  0  0  0
    3.0200    0.6286    0.6778 C   0  0  0  0  0  0  0  0  0  0  0  0
    3.5614    1.9126    0.4727 C   0  0  0  0  0  0  0  0  0  0  0  0
    4.5198    2.1359   -0.5152 C   0  0  0  0  0  0  0  0  0  0  0  0
    4.9503    1.0844   -1.3192 C   0  0  0  0  0  0  0  0  0  0  0  0
    4.4248   -0.1948   -1.1385 C   0  0  0  0  0  0  0  0  0  0  0  0
    3.4636   -0.4460   -0.1437 C   0  0  0  0  0  0  0  0  0  0  0  0
    2.8255   -2.0956    0.0007 S   0  0  0  0  0  0  0  0  0  0  0  0
    3.8146   -3.1997   -0.8886 N   0  0  0  0  0  1  0  0  0  0  0  0
    1.4318   -2.1483   -0.5569 O   0  0  0  0  0  0  0  0  0  0  0  0
    2.8165   -2.5386    1.4359 O   0  0  0  0  0  0  0  0  0  0  0  0
    0.0694    1.2112    0.2578 C   0  0  0  0  0  0  0  0  0  0  0  0
   -1.2198    1.0585   -0.2589 C   0  0  0  0  0  0  0  0  0  0  0  0
   -4.4052    0.7996    1.2941 H   0  0  0  0  0  0  0  0  0  0  0  0
   -4.3095   -0.9873    1.4952 H   0  0  0  0  0  0  0  0  0  0  0  0
   -5.5235   -0.2819    0.3840 H   0  0  0  0  0  0  0  0  0  0  0  0
   -4.5631   -1.7687   -1.5326 H   0  0  0  0  0  0  0  0  0  0  0  0
   -3.3764   -2.4373   -0.3710 H   0  0  0  0  0  0  0  0  0  0  0  0
   -2.8011   -1.6848   -1.9024 H   0  0  0  0  0  0  0  0  0  0  0  0
   -3.8817    1.8537   -0.9897 H   0  0  0  0  0  0  0  0  0  0  0  0
   -4.9151    0.6451   -1.8153 H   0  0  0  0  0  0  0  0  0  0  0  0
   -3.2042    0.8232   -2.3195 H   0  0  0  0  0  0  0  0  0  0  0  0
   -2.1106   -1.7544    1.4549 H   0  0  0  0  0  0  0  0  0  0  0  0
    0.1313   -1.4739    2.3457 H   0  0  0  0  0  0  0  0  0  0  0  0
    2.2415   -0.3773    2.4205 H   0  0  0  0  0  0  0  0  0  0  0  0
    1.9450    1.3567    2.4196 H   0  0  0  0  0  0  0  0  0  0  0  0
    3.2361    2.7504    1.0772 H   0  0  0  0  0  0  0  0  0  0  0  0
    4.9258    3.1287   -0.6606 H   0  0  0  0  0  0  0  0  0  0  0  0
    5.6901    1.2614   -2.0893 H   0  0  0  0  0  0  0  0  0  0  0  0
    4.7696   -0.9883   -1.7876 H   0  0  0  0  0  0  0  0  0  0  0  0
    0.6698    2.0516   -0.0675 H   0  0  0  0  0  0  0  0  0  0  0  0
   -1.5523    1.7957   -0.9739 H   0  0  0  0  0  0  0  0  0  0  0  0
  1  2  1  0
  2  3  1  0
  2  4  1  0
  2  5  1  0
  5  6  1  0
  6  7  2  0
  7  8  1  0
  8  9  1  0
  9 10  1  0
 10 11  2  0
 11 12  1  0
 12 13  2  0
 13 14  1  0
 14 15  2  0
 15 16  1  0
 16 17  1  0
 16 18  2  0
 16 19  2  0
  8 20  2  0
 20 21  1  0
 21  5  2  0
 15 10  1  0
  1 22  1  0
  1 23  1  0
  1 24  1  0
  3 25  1  0
  3 26  1  0
  3 27  1  0
  4 28  1  0
  4 29  1  0
  4 30  1  0
  6 31  1  0
  7 32  1  0
  9 33  1  0
  9 34  1  0
 11 35  1  0
 12 36  1  0
 13 37  1  0
 14 38  1  0
 20 39  1  0
 21 40  1  0
M  RAD  1  17   3
M  END
$$$$
