
     RDKit          3D

 40 41  0  0  0  0  0  0  0  0999 V2000
    4.5413    0.8692   -0.1109 C   0  0  0  0  0  0  0  0  0  0  0  0
    3.5943   -0.3426   -0.2855 C   0  0  0  0  0  0  0  0  0  0  0  0
    3.5454   -0.6865   -1.7901 C   0  0  0  0  0  0  0  0  0  0  0  0
    4.2040   -1.5293    0.4922 C   0  0  0  0  0  0  0  0  0  0  0  0
    2.1644   -0.0718    0.2266 C   0  0  0  0  0  0  0  0  0  0  0  0
    1.1872   -1.0881    0.1367 C   0  0  0  0  0  0  0  0  0  0  0  0
   -0.1177   -0.8784    0.5876 C   0  0  0  0  0  0  0  0  0  0  0  0
   -0.4880    0.3515    1.1441 C   0  0  0  0  0  0  0  0  0  0  0  0
   -1.9038    0.5787    1.6133 C   0  0  0  0  0  0  0  0  0  0  0  0
   -2.8651    0.6458    0.4425 C   0  0  0  0  0  0  0  0  0  0  0  0
   -2.6465    1.6396   -0.5318 C   0  0  0  0  0  0  0  0  0  0  0  0
   -3.4830    1.7507   -1.6419 C   0  0  0  0  0  0  0  0  0  0  0  0
   -4.5589    0.8804   -1.7938 C   0  0  0  0  0  0  0  0  0  0  0  0
   -4.8100   -0.0962   -0.8301 C   0  0  0  0  0  0  0  0  0  0  0  0
   -3.9822   -0.2239    0.2994 C   0  0  0  0  0  0  0  0  0  0  0  0
   -4.4016   -1.4487    1.5111 S   0  0  0  0  0  0  0  0  0  0  0  0
   -3.1429   -2.6263    1.6228 N   0  0  0  0  0  1  0  0  0  0  0  0
   -5.6759   -2.1481    1.1282 O   0  0  0  0  0  0  0  0  0  0  0  0
   -4.6025   -0.7898    2.8467 O   0  0  0  0  0  0  0  0  0  0  0  0
    0.4666    1.3724    1.2379 C   0  0  0  0  0  0  0  0  0  0  0  0
    1.7737    1.1670    0.7880 C   0  0  0  0  0  0  0  0  0  0  0  0
    4.1707    1.7474   -0.6827 H   0  0  0  0  0  0  0  0  0  0  0  0
    5.5595    0.6316   -0.4892 H   0  0  0  0  0  0  0  0  0  0  0  0
    4.6401    1.1433    0.9617 H   0  0  0  0  0  0  0  0  0  0  0  0
    3.0700    0.1409   -2.3602 H   0  0  0  0  0  0  0  0  0  0  0  0
    2.9683   -1.6158   -1.9782 H   0  0  0  0  0  0  0  0  0  0  0  0
    4.5698   -0.8444   -2.1921 H   0  0  0  0  0  0  0  0  0  0  0  0
    5.2515   -1.7156    0.1701 H   0  0  0  0  0  0  0  0  0  0  0  0
    3.6333   -2.4660    0.3220 H   0  0  0  0  0  0  0  0  0  0  0  0
    4.2067   -1.3155    1.5831 H   0  0  0  0  0  0  0  0  0  0  0  0
    1.4277   -2.0534   -0.2872 H   0  0  0  0  0  0  0  0  0  0  0  0
   -0.8426   -1.6762    0.4951 H   0  0  0  0  0  0  0  0  0  0  0  0
   -1.9796    1.5306    2.1827 H   0  0  0  0  0  0  0  0  0  0  0  0
   -2.1537   -0.2231    2.3320 H   0  0  0  0  0  0  0  0  0  0  0  0
   -1.8179    2.3302   -0.4337 H   0  0  0  0  0  0  0  0  0  0  0  0
   -3.2960    2.5142   -2.3860 H   0  0  0  0  0  0  0  0  0  0  0  0
   -5.2066    0.9680   -2.6566 H   0  0  0  0  0  0  0  0  0  0  0  0
   -5.6617   -0.7489   -0.9680 H   0  0  0  0  0  0  0  0  0  0  0  0
    0.1992    2.3346    1.6571 H   0  0  0  0  0  0  0  0  0  0  0  0
    2.4622    1.9925    0.8874 H   0  0  0  0  0  0  0  0  0  0  0  0
  1  2  1  0
  2  3  1  0
  2  4  1  0
  2  5  1  0
  5  6  1  0
  6  7  2  0
  7  8  1  0
  8  9  1  0
  9 10  1  0
 10 11  2  0
 11 12  1  0
 12 13  2  0
 13 14  1  0
 14 15  2  0
 15 16  1  0
 16 17  1  0
 16 18  2  0
 16 19  2  0
  8 20  2  0
 20 21  1  0
 21  5  2  0
 15 10  1  0
  1 22  1  0
  1 23  1  0
  1 24  1  0
  3 25  1  0
  3 26  1  0
  3 27  1  0
  4 28  1  0
  4 29  1  0
  4 30  1  0
  6 31  1  0
  7 32  1  0
  9 33  1  0
  9 34  1  0
 11 35  1  0
 12 36  1  0
 13 37  1  0
 14 38  1  0
 20 39  1  0
 21 40  1  0
M  RAD  1  17   3
M  END
$$$$
