
     RDKit          3D

 40 41  0  0  0  0  0  0  0  0999 V2000
    3.7843    1.8825   -0.1178 C   0  0  0  0  0  0  0  0  0  0  0  0
    3.4531    0.4520    0.3718 C   0  0  0  0  0  0  0  0  0  0  0  0
    4.5172   -0.5021   -0.2128 C   0  0  0  0  0  0  0  0  0  0  0  0
    3.5533    0.4499    1.9129 C   0  0  0  0  0  0  0  0  0  0  0  0
    2.0479   -0.0225   -0.0526 C   0  0  0  0  0  0  0  0  0  0  0  0
    1.6013   -1.3074    0.3280 C   0  0  0  0  0  0  0  0  0  0  0  0
    0.3331   -1.7684   -0.0316 C   0  0  0  0  0  0  0  0  0  0  0  0
   -0.5367   -0.9549   -0.7687 C   0  0  0  0  0  0  0  0  0  0  0  0
   -1.8974   -1.4668   -1.1719 C   0  0  0  0  0  0  0  0  0  0  0  0
   -3.0047   -0.4921   -0.8226 C   0  0  0  0  0  0  0  0  0  0  0  0
   -3.5978    0.2370   -1.8717 C   0  0  0  0  0  0  0  0  0  0  0  0
   -4.6080    1.1639   -1.6175 C   0  0  0  0  0  0  0  0  0  0  0  0
   -5.0398    1.3841   -0.3127 C   0  0  0  0  0  0  0  0  0  0  0  0
   -4.4638    0.6780    0.7433 C   0  0  0  0  0  0  0  0  0  0  0  0
   -3.4496   -0.2674    0.5107 C   0  0  0  0  0  0  0  0  0  0  0  0
   -2.7506   -1.1012    1.9126 S   0  0  0  0  0  0  0  0  0  0  0  0
   -3.7422   -0.8601    3.3079 N   0  0  0  0  0  1  0  0  0  0  0  0
   -2.6601   -2.5793    1.6617 O   0  0  0  0  0  0  0  0  0  0  0  0
   -1.3832   -0.5489    2.1981 O   0  0  0  0  0  0  0  0  0  0  0  0
   -0.0981    0.3111   -1.1804 C   0  0  0  0  0  0  0  0  0  0  0  0
    1.1702    0.7761   -0.8229 C   0  0  0  0  0  0  0  0  0  0  0  0
    3.0635    2.6199    0.2973 H   0  0  0  0  0  0  0  0  0  0  0  0
    3.7671    1.9356   -1.2279 H   0  0  0  0  0  0  0  0  0  0  0  0
    4.8010    2.1872    0.2137 H   0  0  0  0  0  0  0  0  0  0  0  0
    5.5416   -0.1558    0.0452 H   0  0  0  0  0  0  0  0  0  0  0  0
    4.4049   -1.5322    0.1853 H   0  0  0  0  0  0  0  0  0  0  0  0
    4.4312   -0.5446   -1.3202 H   0  0  0  0  0  0  0  0  0  0  0  0
    3.4354   -0.5724    2.3289 H   0  0  0  0  0  0  0  0  0  0  0  0
    4.5438    0.8307    2.2444 H   0  0  0  0  0  0  0  0  0  0  0  0
    2.7646    1.0985    2.3521 H   0  0  0  0  0  0  0  0  0  0  0  0
    2.2335   -1.9653    0.9083 H   0  0  0  0  0  0  0  0  0  0  0  0
    0.0273   -2.7604    0.2770 H   0  0  0  0  0  0  0  0  0  0  0  0
   -2.1128   -2.4538   -0.7165 H   0  0  0  0  0  0  0  0  0  0  0  0
   -1.8750   -1.6572   -2.2670 H   0  0  0  0  0  0  0  0  0  0  0  0
   -3.2731    0.0927   -2.8949 H   0  0  0  0  0  0  0  0  0  0  0  0
   -5.0534    1.7165   -2.4347 H   0  0  0  0  0  0  0  0  0  0  0  0
   -5.8201    2.1083   -0.1172 H   0  0  0  0  0  0  0  0  0  0  0  0
   -4.8116    0.8808    1.7471 H   0  0  0  0  0  0  0  0  0  0  0  0
   -0.7408    0.9447   -1.7786 H   0  0  0  0  0  0  0  0  0  0  0  0
    1.4442    1.7636   -1.1621 H   0  0  0  0  0  0  0  0  0  0  0  0
  1  2  1  0
  2  3  1  0
  2  4  1  0
  2  5  1  0
  5  6  1  0
  6  7  2  0
  7  8  1  0
  8  9  1  0
  9 10  1  0
 10 11  2  0
 11 12  1  0
 12 13  2  0
 13 14  1  0
 14 15  2  0
 15 16  1  0
 16 17  1  0
 16 18  2  0
 16 19  2  0
  8 20  2  0
 20 21  1  0
 21  5  2  0
 15 10  1  0
  1 22  1  0
  1 23  1  0
  1 24  1  0
  3 25  1  0
  3 26  1  0
  3 27  1  0
  4 28  1  0
  4 29  1  0
  4 30  1  0
  6 31  1  0
  7 32  1  0
  9 33  1  0
  9 34  1  0
 11 35  1  0
 12 36  1  0
 13 37  1  0
 14 38  1  0
 20 39  1  0
 21 40  1  0
M  RAD  1  17   3
M  END
$$$$
