
     RDKit          3D

 40 41  0  0  0  0  0  0  0  0999 V2000
    4.5131   -0.0374    0.4800 C   0  0  0  0  0  0  0  0  0  0  0  0
    3.4571    0.1668   -0.6279 C   0  0  0  0  0  0  0  0  0  0  0  0
    3.6077   -0.9434   -1.6909 C   0  0  0  0  0  0  0  0  0  0  0  0
    3.7547    1.5200   -1.3177 C   0  0  0  0  0  0  0  0  0  0  0  0
    2.0447    0.0997   -0.0111 C   0  0  0  0  0  0  0  0  0  0  0  0
    1.6265   -1.0780    0.6473 C   0  0  0  0  0  0  0  0  0  0  0  0
    0.3530   -1.1780    1.2114 C   0  0  0  0  0  0  0  0  0  0  0  0
   -0.5504   -0.1115    1.1218 C   0  0  0  0  0  0  0  0  0  0  0  0
   -1.9172   -0.2183    1.7515 C   0  0  0  0  0  0  0  0  0  0  0  0
   -3.0243    0.1684    0.7908 C   0  0  0  0  0  0  0  0  0  0  0  0
   -3.6602    1.4106    0.9817 C   0  0  0  0  0  0  0  0  0  0  0  0
   -4.6728    1.8359    0.1225 C   0  0  0  0  0  0  0  0  0  0  0  0
   -5.0643    1.0330   -0.9449 C   0  0  0  0  0  0  0  0  0  0  0  0
   -4.4456   -0.1988   -1.1574 C   0  0  0  0  0  0  0  0  0  0  0  0
   -3.4280   -0.6525   -0.2998 C   0  0  0  0  0  0  0  0  0  0  0  0
   -2.6734   -2.2182   -0.6577 S   0  0  0  0  0  0  0  0  0  0  0  0
   -3.6218   -3.0900   -1.8104 N   0  0  0  0  0  1  0  0  0  0  0  0
   -1.3043   -1.9984   -1.2351 O   0  0  0  0  0  0  0  0  0  0  0  0
   -2.5731   -3.0566    0.5845 O   0  0  0  0  0  0  0  0  0  0  0  0
   -0.1409    1.0753    0.4983 C   0  0  0  0  0  0  0  0  0  0  0  0
    1.1325    1.1796   -0.0672 C   0  0  0  0  0  0  0  0  0  0  0  0
    5.5411    0.0489    0.0657 H   0  0  0  0  0  0  0  0  0  0  0  0
    4.4265   -1.0407    0.9469 H   0  0  0  0  0  0  0  0  0  0  0  0
    4.3914    0.7294    1.2755 H   0  0  0  0  0  0  0  0  0  0  0  0
    4.6037   -0.8875   -2.1815 H   0  0  0  0  0  0  0  0  0  0  0  0
    2.8259   -0.8369   -2.4739 H   0  0  0  0  0  0  0  0  0  0  0  0
    3.5158   -1.9545   -1.2421 H   0  0  0  0  0  0  0  0  0  0  0  0
    3.7005    2.3571   -0.5884 H   0  0  0  0  0  0  0  0  0  0  0  0
    4.7778    1.5242   -1.7529 H   0  0  0  0  0  0  0  0  0  0  0  0
    3.0389    1.7075   -2.1472 H   0  0  0  0  0  0  0  0  0  0  0  0
    2.2854   -1.9314    0.7298 H   0  0  0  0  0  0  0  0  0  0  0  0
    0.0695   -2.0966    1.7101 H   0  0  0  0  0  0  0  0  0  0  0  0
   -1.9283    0.4409    2.6467 H   0  0  0  0  0  0  0  0  0  0  0  0
   -2.1055   -1.2363    2.1463 H   0  0  0  0  0  0  0  0  0  0  0  0
   -3.3675    2.0595    1.7981 H   0  0  0  0  0  0  0  0  0  0  0  0
   -5.1514    2.7935    0.2825 H   0  0  0  0  0  0  0  0  0  0  0  0
   -5.8466    1.3678   -1.6139 H   0  0  0  0  0  0  0  0  0  0  0  0
   -4.7627   -0.7939   -2.0029 H   0  0  0  0  0  0  0  0  0  0  0  0
   -0.8106    1.9245    0.4457 H   0  0  0  0  0  0  0  0  0  0  0  0
    1.3833    2.1162   -0.5419 H   0  0  0  0  0  0  0  0  0  0  0  0
  1  2  1  0
  2  3  1  0
  2  4  1  0
  2  5  1  0
  5  6  1  0
  6  7  2  0
  7  8  1  0
  8  9  1  0
  9 10  1  0
 10 11  2  0
 11 12  1  0
 12 13  2  0
 13 14  1  0
 14 15  2  0
 15 16  1  0
 16 17  1  0
 16 18  2  0
 16 19  2  0
  8 20  2  0
 20 21  1  0
 21  5  2  0
 15 10  1  0
  1 22  1  0
  1 23  1  0
  1 24  1  0
  3 25  1  0
  3 26  1  0
  3 27  1  0
  4 28  1  0
  4 29  1  0
  4 30  1  0
  6 31  1  0
  7 32  1  0
  9 33  1  0
  9 34  1  0
 11 35  1  0
 12 36  1  0
 13 37  1  0
 14 38  1  0
 20 39  1  0
 21 40  1  0
M  RAD  1  17   3
M  END
$$$$
