
     RDKit          3D

 40 41  0  0  0  0  0  0  0  0999 V2000
    4.5058   -0.5898    0.3142 C   0  0  0  0  0  0  0  0  0  0  0  0
    3.4022   -0.2562   -0.7128 C   0  0  0  0  0  0  0  0  0  0  0  0
    3.3355   -1.3747   -1.7757 C   0  0  0  0  0  0  0  0  0  0  0  0
    3.8097    1.0517   -1.4332 C   0  0  0  0  0  0  0  0  0  0  0  0
    2.0427   -0.1512    0.0088 C   0  0  0  0  0  0  0  0  0  0  0  0
    1.2675    1.0323    0.0132 C   0  0  0  0  0  0  0  0  0  0  0  0
    0.0371    1.0834    0.6735 C   0  0  0  0  0  0  0  0  0  0  0  0
   -0.4659   -0.0454    1.3348 C   0  0  0  0  0  0  0  0  0  0  0  0
   -1.7841    0.0146    2.0661 C   0  0  0  0  0  0  0  0  0  0  0  0
   -2.9051    0.5354    1.1883 C   0  0  0  0  0  0  0  0  0  0  0  0
   -3.3684    1.8457    1.4171 C   0  0  0  0  0  0  0  0  0  0  0  0
   -4.3834    2.3930    0.6332 C   0  0  0  0  0  0  0  0  0  0  0  0
   -4.9494    1.6458   -0.3957 C   0  0  0  0  0  0  0  0  0  0  0  0
   -4.5034    0.3479   -0.6448 C   0  0  0  0  0  0  0  0  0  0  0  0
   -3.4871   -0.2282    0.1374 C   0  0  0  0  0  0  0  0  0  0  0  0
   -2.9583   -1.8738   -0.2644 S   0  0  0  0  0  0  0  0  0  0  0  0
   -4.0901   -2.6211   -1.3361 N   0  0  0  0  0  1  0  0  0  0  0  0
   -2.8677   -2.7203    0.9731 O   0  0  0  0  0  0  0  0  0  0  0  0
   -1.6200   -1.8220   -0.9445 O   0  0  0  0  0  0  0  0  0  0  0  0
    0.3047   -1.2146    1.3644 C   0  0  0  0  0  0  0  0  0  0  0  0
    1.5347   -1.2700    0.7055 C   0  0  0  0  0  0  0  0  0  0  0  0
    4.5390    0.1848    1.1108 H   0  0  0  0  0  0  0  0  0  0  0  0
    4.3329   -1.5758    0.7939 H   0  0  0  0  0  0  0  0  0  0  0  0
    5.5025   -0.6291   -0.1767 H   0  0  0  0  0  0  0  0  0  0  0  0
    3.1551   -2.3677   -1.3136 H   0  0  0  0  0  0  0  0  0  0  0  0
    2.5157   -1.1721   -2.4986 H   0  0  0  0  0  0  0  0  0  0  0  0
    4.2910   -1.4401   -2.3402 H   0  0  0  0  0  0  0  0  0  0  0  0
    4.7899    0.9315   -1.9440 H   0  0  0  0  0  0  0  0  0  0  0  0
    3.9132    1.8878   -0.7082 H   0  0  0  0  0  0  0  0  0  0  0  0
    3.0616    1.3266   -2.2080 H   0  0  0  0  0  0  0  0  0  0  0  0
    1.5942    1.9320   -0.4860 H   0  0  0  0  0  0  0  0  0  0  0  0
   -0.5259    2.0083    0.6649 H   0  0  0  0  0  0  0  0  0  0  0  0
   -2.0649   -0.9735    2.4816 H   0  0  0  0  0  0  0  0  0  0  0  0
   -1.6471    0.6686    2.9547 H   0  0  0  0  0  0  0  0  0  0  0  0
   -2.9379    2.4525    2.2043 H   0  0  0  0  0  0  0  0  0  0  0  0
   -4.7282    3.4016    0.8215 H   0  0  0  0  0  0  0  0  0  0  0  0
   -5.7332    2.0749   -1.0066 H   0  0  0  0  0  0  0  0  0  0  0  0
   -4.9537   -0.2025   -1.4596 H   0  0  0  0  0  0  0  0  0  0  0  0
   -0.0503   -2.0925    1.8898 H   0  0  0  0  0  0  0  0  0  0  0  0
    2.0889   -2.1978    0.7447 H   0  0  0  0  0  0  0  0  0  0  0  0
  1  2  1  0
  2  3  1  0
  2  4  1  0
  2  5  1  0
  5  6  1  0
  6  7  2  0
  7  8  1  0
  8  9  1  0
  9 10  1  0
 10 11  2  0
 11 12  1  0
 12 13  2  0
 13 14  1  0
 14 15  2  0
 15 16  1  0
 16 17  1  0
 16 18  2  0
 16 19  2  0
  8 20  2  0
 20 21  1  0
 21  5  2  0
 15 10  1  0
  1 22  1  0
  1 23  1  0
  1 24  1  0
  3 25  1  0
  3 26  1  0
  3 27  1  0
  4 28  1  0
  4 29  1  0
  4 30  1  0
  6 31  1  0
  7 32  1  0
  9 33  1  0
  9 34  1  0
 11 35  1  0
 12 36  1  0
 13 37  1  0
 14 38  1  0
 20 39  1  0
 21 40  1  0
M  RAD  1  17   3
M  END
$$$$
