
     RDKit          3D

 40 41  0  0  0  0  0  0  0  0999 V2000
   -3.9224    1.4938   -0.4992 C   0  0  0  0  0  0  0  0  0  0  0  0
   -3.4934    0.0358   -0.2062 C   0  0  0  0  0  0  0  0  0  0  0  0
   -4.4375   -0.5216    0.8811 C   0  0  0  0  0  0  0  0  0  0  0  0
   -3.6742   -0.7757   -1.5077 C   0  0  0  0  0  0  0  0  0  0  0  0
   -2.0316   -0.0801    0.2729 C   0  0  0  0  0  0  0  0  0  0  0  0
   -1.4948   -1.3518    0.5728 C   0  0  0  0  0  0  0  0  0  0  0  0
   -0.1740   -1.4965    1.0024 C   0  0  0  0  0  0  0  0  0  0  0  0
    0.6589   -0.3777    1.1303 C   0  0  0  0  0  0  0  0  0  0  0  0
    2.0786   -0.5387    1.6148 C   0  0  0  0  0  0  0  0  0  0  0  0
    3.0763    0.1612    0.7131 C   0  0  0  0  0  0  0  0  0  0  0  0
    3.6577    1.3580    1.1752 C   0  0  0  0  0  0  0  0  0  0  0  0
    4.5680    2.0621    0.3879 C   0  0  0  0  0  0  0  0  0  0  0  0
    4.9094    1.5885   -0.8756 C   0  0  0  0  0  0  0  0  0  0  0  0
    4.3427    0.4085   -1.3570 C   0  0  0  0  0  0  0  0  0  0  0  0
    3.4289   -0.3230   -0.5783 C   0  0  0  0  0  0  0  0  0  0  0  0
    2.7327   -1.7982   -1.2769 S   0  0  0  0  0  0  0  0  0  0  0  0
    3.6244   -2.2748   -2.6790 N   0  0  0  0  0  1  0  0  0  0  0  0
    1.3090   -1.5418   -1.6815 O   0  0  0  0  0  0  0  0  0  0  0  0
    2.7854   -2.9299   -0.2907 O   0  0  0  0  0  0  0  0  0  0  0  0
    0.1334    0.8944    0.8657 C   0  0  0  0  0  0  0  0  0  0  0  0
   -1.1878    1.0437    0.4360 C   0  0  0  0  0  0  0  0  0  0  0  0
   -3.2918    1.9390   -1.2991 H   0  0  0  0  0  0  0  0  0  0  0  0
   -4.9778    1.5320   -0.8467 H   0  0  0  0  0  0  0  0  0  0  0  0
   -3.8513    2.1196    0.4166 H   0  0  0  0  0  0  0  0  0  0  0  0
   -5.5005   -0.4099    0.5754 H   0  0  0  0  0  0  0  0  0  0  0  0
   -4.2566   -1.6013    1.0647 H   0  0  0  0  0  0  0  0  0  0  0  0
   -4.2897    0.0246    1.8379 H   0  0  0  0  0  0  0  0  0  0  0  0
   -4.7102   -0.6714   -1.8971 H   0  0  0  0  0  0  0  0  0  0  0  0
   -3.4892   -1.8578   -1.3439 H   0  0  0  0  0  0  0  0  0  0  0  0
   -2.9696   -0.4155   -2.2884 H   0  0  0  0  0  0  0  0  0  0  0  0
   -2.0967   -2.2450    0.4765 H   0  0  0  0  0  0  0  0  0  0  0  0
    0.2009   -2.4878    1.2249 H   0  0  0  0  0  0  0  0  0  0  0  0
    2.3553   -1.6067    1.7180 H   0  0  0  0  0  0  0  0  0  0  0  0
    2.1307   -0.1299    2.6473 H   0  0  0  0  0  0  0  0  0  0  0  0
    3.4013    1.7542    2.1501 H   0  0  0  0  0  0  0  0  0  0  0  0
    5.0058    2.9806    0.7573 H   0  0  0  0  0  0  0  0  0  0  0  0
    5.6119    2.1399   -1.4873 H   0  0  0  0  0  0  0  0  0  0  0  0
    4.6179    0.0733   -2.3478 H   0  0  0  0  0  0  0  0  0  0  0  0
    0.7488    1.7768    0.9890 H   0  0  0  0  0  0  0  0  0  0  0  0
   -1.5290    2.0487    0.2390 H   0  0  0  0  0  0  0  0  0  0  0  0
  1  2  1  0
  2  3  1  0
  2  4  1  0
  2  5  1  0
  5  6  1  0
  6  7  2  0
  7  8  1  0
  8  9  1  0
  9 10  1  0
 10 11  2  0
 11 12  1  0
 12 13  2  0
 13 14  1  0
 14 15  2  0
 15 16  1  0
 16 17  1  0
 16 18  2  0
 16 19  2  0
  8 20  2  0
 20 21  1  0
 21  5  2  0
 15 10  1  0
  1 22  1  0
  1 23  1  0
  1 24  1  0
  3 25  1  0
  3 26  1  0
  3 27  1  0
  4 28  1  0
  4 29  1  0
  4 30  1  0
  6 31  1  0
  7 32  1  0
  9 33  1  0
  9 34  1  0
 11 35  1  0
 12 36  1  0
 13 37  1  0
 14 38  1  0
 20 39  1  0
 21 40  1  0
M  RAD  1  17   3
M  END
$$$$
