
     RDKit          3D

 40 41  0  0  0  0  0  0  0  0999 V2000
   -3.9434   -0.2207    1.7425 C   0  0  0  0  0  0  0  0  0  0  0  0
   -3.6165    0.0442    0.2530 C   0  0  0  0  0  0  0  0  0  0  0  0
   -4.5365   -0.8598   -0.5963 C   0  0  0  0  0  0  0  0  0  0  0  0
   -3.9391    1.5253   -0.0416 C   0  0  0  0  0  0  0  0  0  0  0  0
   -2.1429   -0.2417   -0.1033 C   0  0  0  0  0  0  0  0  0  0  0  0
   -1.6956   -0.0485   -1.4294 C   0  0  0  0  0  0  0  0  0  0  0  0
   -0.3685   -0.2946   -1.7883 C   0  0  0  0  0  0  0  0  0  0  0  0
    0.5533   -0.7441   -0.8347 C   0  0  0  0  0  0  0  0  0  0  0  0
    1.9921   -0.9905   -1.2151 C   0  0  0  0  0  0  0  0  0  0  0  0
    2.8976    0.0821   -0.6428 C   0  0  0  0  0  0  0  0  0  0  0  0
    2.6856    1.4103   -1.0611 C   0  0  0  0  0  0  0  0  0  0  0  0
    3.4691    2.4512   -0.5644 C   0  0  0  0  0  0  0  0  0  0  0  0
    4.4835    2.1844    0.3508 C   0  0  0  0  0  0  0  0  0  0  0  0
    4.7254    0.8745    0.7652 C   0  0  0  0  0  0  0  0  0  0  0  0
    3.9499   -0.1912    0.2755 C   0  0  0  0  0  0  0  0  0  0  0  0
    4.3519   -1.8353    0.8048 S   0  0  0  0  0  0  0  0  0  0  0  0
    5.7067   -1.8202    1.8784 N   0  0  0  0  0  1  0  0  0  0  0  0
    4.7033   -2.6763   -0.3900 O   0  0  0  0  0  0  0  0  0  0  0  0
    3.1817   -2.4419    1.5254 O   0  0  0  0  0  0  0  0  0  0  0  0
    0.1286   -0.9363    0.4856 C   0  0  0  0  0  0  0  0  0  0  0  0
   -1.1982   -0.6914    0.8493 C   0  0  0  0  0  0  0  0  0  0  0  0
   -5.0132   -0.0056    1.9557 H   0  0  0  0  0  0  0  0  0  0  0  0
   -3.3346    0.4328    2.4041 H   0  0  0  0  0  0  0  0  0  0  0  0
   -3.7589   -1.2849    2.0053 H   0  0  0  0  0  0  0  0  0  0  0  0
   -4.2879   -1.9301   -0.4286 H   0  0  0  0  0  0  0  0  0  0  0  0
   -5.6032   -0.7022   -0.3258 H   0  0  0  0  0  0  0  0  0  0  0  0
   -4.4343   -0.6438   -1.6803 H   0  0  0  0  0  0  0  0  0  0  0  0
   -4.9852    1.7662    0.2474 H   0  0  0  0  0  0  0  0  0  0  0  0
   -3.2565    2.1904    0.5305 H   0  0  0  0  0  0  0  0  0  0  0  0
   -3.8305    1.7601   -1.1211 H   0  0  0  0  0  0  0  0  0  0  0  0
   -2.3725    0.2978   -2.1984 H   0  0  0  0  0  0  0  0  0  0  0  0
   -0.0605   -0.1292   -2.8133 H   0  0  0  0  0  0  0  0  0  0  0  0
    2.2649   -2.0097   -0.8855 H   0  0  0  0  0  0  0  0  0  0  0  0
    2.1077   -0.9933   -2.3210 H   0  0  0  0  0  0  0  0  0  0  0  0
    1.9035    1.6417   -1.7739 H   0  0  0  0  0  0  0  0  0  0  0  0
    3.2886    3.4674   -0.8905 H   0  0  0  0  0  0  0  0  0  0  0  0
    5.0903    2.9940    0.7354 H   0  0  0  0  0  0  0  0  0  0  0  0
    5.5286    0.6985    1.4674 H   0  0  0  0  0  0  0  0  0  0  0  0
    0.8282   -1.2713    1.2398 H   0  0  0  0  0  0  0  0  0  0  0  0
   -1.4624   -0.8582    1.8826 H   0  0  0  0  0  0  0  0  0  0  0  0
  1  2  1  0
  2  3  1  0
  2  4  1  0
  2  5  1  0
  5  6  1  0
  6  7  2  0
  7  8  1  0
  8  9  1  0
  9 10  1  0
 10 11  2  0
 11 12  1  0
 12 13  2  0
 13 14  1  0
 14 15  2  0
 15 16  1  0
 16 17  1  0
 16 18  2  0
 16 19  2  0
  8 20  2  0
 20 21  1  0
 21  5  2  0
 15 10  1  0
  1 22  1  0
  1 23  1  0
  1 24  1  0
  3 25  1  0
  3 26  1  0
  3 27  1  0
  4 28  1  0
  4 29  1  0
  4 30  1  0
  6 31  1  0
  7 32  1  0
  9 33  1  0
  9 34  1  0
 11 35  1  0
 12 36  1  0
 13 37  1  0
 14 38  1  0
 20 39  1  0
 21 40  1  0
M  RAD  1  17   3
M  END
$$$$
