
     RDKit          3D

 40 41  0  0  0  0  0  0  0  0999 V2000
   -4.4816   -0.9866    0.7417 C   0  0  0  0  0  0  0  0  0  0  0  0
   -3.6133    0.2156    0.3112 C   0  0  0  0  0  0  0  0  0  0  0  0
   -3.8966    1.3758    1.2958 C   0  0  0  0  0  0  0  0  0  0  0  0
   -4.0431    0.6804   -1.0972 C   0  0  0  0  0  0  0  0  0  0  0  0
   -2.1293   -0.2053    0.2829 C   0  0  0  0  0  0  0  0  0  0  0  0
   -1.7182   -1.2559   -0.5676 C   0  0  0  0  0  0  0  0  0  0  0  0
   -0.3832   -1.6626   -0.6217 C   0  0  0  0  0  0  0  0  0  0  0  0
    0.5831   -1.0342    0.1736 C   0  0  0  0  0  0  0  0  0  0  0  0
    2.0292   -1.4591    0.1043 C   0  0  0  0  0  0  0  0  0  0  0  0
    2.8807   -0.3983   -0.5656 C   0  0  0  0  0  0  0  0  0  0  0  0
    2.5522   -0.0271   -1.8843 C   0  0  0  0  0  0  0  0  0  0  0  0
    3.2839    0.9512   -2.5565 C   0  0  0  0  0  0  0  0  0  0  0  0
    4.3630    1.5681   -1.9298 C   0  0  0  0  0  0  0  0  0  0  0  0
    4.7227    1.2003   -0.6333 C   0  0  0  0  0  0  0  0  0  0  0  0
    4.0018    0.2133    0.0620 C   0  0  0  0  0  0  0  0  0  0  0  0
    4.5571   -0.2438    1.6828 S   0  0  0  0  0  0  0  0  0  0  0  0
    3.3428    0.1317    2.8525 N   0  0  0  0  0  1  0  0  0  0  0  0
    4.8592   -1.7155    1.7168 O   0  0  0  0  0  0  0  0  0  0  0  0
    5.8093    0.5082    2.0379 O   0  0  0  0  0  0  0  0  0  0  0  0
    0.1943    0.0115    1.0197 C   0  0  0  0  0  0  0  0  0  0  0  0
   -1.1402    0.4218    1.0771 C   0  0  0  0  0  0  0  0  0  0  0  0
   -4.1563   -1.3615    1.7363 H   0  0  0  0  0  0  0  0  0  0  0  0
   -5.5522   -0.6951    0.8113 H   0  0  0  0  0  0  0  0  0  0  0  0
   -4.4123   -1.8223    0.0145 H   0  0  0  0  0  0  0  0  0  0  0  0
   -3.6342    1.0854    2.3361 H   0  0  0  0  0  0  0  0  0  0  0  0
   -4.9751    1.6457    1.2872 H   0  0  0  0  0  0  0  0  0  0  0  0
   -3.3240    2.2852    1.0119 H   0  0  0  0  0  0  0  0  0  0  0  0
   -3.9689   -0.1419   -1.8392 H   0  0  0  0  0  0  0  0  0  0  0  0
   -3.3994    1.5192   -1.4404 H   0  0  0  0  0  0  0  0  0  0  0  0
   -5.0987    1.0294   -1.0924 H   0  0  0  0  0  0  0  0  0  0  0  0
   -2.4300   -1.7689   -1.1996 H   0  0  0  0  0  0  0  0  0  0  0  0
   -0.1043   -2.4678   -1.2901 H   0  0  0  0  0  0  0  0  0  0  0  0
    2.1321   -2.4047   -0.4713 H   0  0  0  0  0  0  0  0  0  0  0  0
    2.3612   -1.6942    1.1320 H   0  0  0  0  0  0  0  0  0  0  0  0
    1.7188   -0.4952   -2.3938 H   0  0  0  0  0  0  0  0  0  0  0  0
    3.0129    1.2312   -3.5664 H   0  0  0  0  0  0  0  0  0  0  0  0
    4.9293    2.3278   -2.4532 H   0  0  0  0  0  0  0  0  0  0  0  0
    5.5746    1.6870   -0.1773 H   0  0  0  0  0  0  0  0  0  0  0  0
    0.9282    0.5172    1.6331 H   0  0  0  0  0  0  0  0  0  0  0  0
   -1.3754    1.2339    1.7483 H   0  0  0  0  0  0  0  0  0  0  0  0
  1  2  1  0
  2  3  1  0
  2  4  1  0
  2  5  1  0
  5  6  1  0
  6  7  2  0
  7  8  1  0
  8  9  1  0
  9 10  1  0
 10 11  2  0
 11 12  1  0
 12 13  2  0
 13 14  1  0
 14 15  2  0
 15 16  1  0
 16 17  1  0
 16 18  2  0
 16 19  2  0
  8 20  2  0
 20 21  1  0
 21  5  2  0
 15 10  1  0
  1 22  1  0
  1 23  1  0
  1 24  1  0
  3 25  1  0
  3 26  1  0
  3 27  1  0
  4 28  1  0
  4 29  1  0
  4 30  1  0
  6 31  1  0
  7 32  1  0
  9 33  1  0
  9 34  1  0
 11 35  1  0
 12 36  1  0
 13 37  1  0
 14 38  1  0
 20 39  1  0
 21 40  1  0
M  RAD  1  17   3
M  END
$$$$
