
     RDKit          3D

 40 41  0  0  0  0  0  0  0  0999 V2000
   -3.9777    1.4357   -0.0182 C   0  0  0  0  0  0  0  0  0  0  0  0
   -3.5001   -0.0357   -0.0694 C   0  0  0  0  0  0  0  0  0  0  0  0
   -4.3430   -0.7657   -1.1375 C   0  0  0  0  0  0  0  0  0  0  0  0
   -3.7706   -0.6640    1.3151 C   0  0  0  0  0  0  0  0  0  0  0  0
   -2.0025   -0.1741   -0.4129 C   0  0  0  0  0  0  0  0  0  0  0  0
   -1.1688    0.9404   -0.6664 C   0  0  0  0  0  0  0  0  0  0  0  0
    0.1853    0.7718   -0.9672 C   0  0  0  0  0  0  0  0  0  0  0  0
    0.7534   -0.5089   -1.0090 C   0  0  0  0  0  0  0  0  0  0  0  0
    2.2102   -0.6938   -1.3547 C   0  0  0  0  0  0  0  0  0  0  0  0
    3.1191    0.1531   -0.4856 C   0  0  0  0  0  0  0  0  0  0  0  0
    3.7141    1.2908   -1.0648 C   0  0  0  0  0  0  0  0  0  0  0  0
    4.5449    2.1235   -0.3160 C   0  0  0  0  0  0  0  0  0  0  0  0
    4.7917    1.8396    1.0241 C   0  0  0  0  0  0  0  0  0  0  0  0
    4.2094    0.7216    1.6210 C   0  0  0  0  0  0  0  0  0  0  0  0
    3.3749   -0.1370    0.8843 C   0  0  0  0  0  0  0  0  0  0  0  0
    2.6513   -1.5209    1.7271 S   0  0  0  0  0  0  0  0  0  0  0  0
    3.4353   -1.7725    3.2470 N   0  0  0  0  0  1  0  0  0  0  0  0
    2.8040   -2.7763    0.9167 O   0  0  0  0  0  0  0  0  0  0  0  0
    1.1952   -1.2526    1.9802 O   0  0  0  0  0  0  0  0  0  0  0  0
   -0.0667   -1.6230   -0.7902 C   0  0  0  0  0  0  0  0  0  0  0  0
   -1.4203   -1.4588   -0.4889 C   0  0  0  0  0  0  0  0  0  0  0  0
   -3.8442    1.9304   -1.0045 H   0  0  0  0  0  0  0  0  0  0  0  0
   -3.4220    2.0056    0.7577 H   0  0  0  0  0  0  0  0  0  0  0  0
   -5.0583    1.4908    0.2377 H   0  0  0  0  0  0  0  0  0  0  0  0
   -5.4291   -0.6438   -0.9338 H   0  0  0  0  0  0  0  0  0  0  0  0
   -4.1284   -0.3531   -2.1472 H   0  0  0  0  0  0  0  0  0  0  0  0
   -4.1283   -1.8546   -1.1532 H   0  0  0  0  0  0  0  0  0  0  0  0
   -3.1380   -0.1788    2.0897 H   0  0  0  0  0  0  0  0  0  0  0  0
   -3.5535   -1.7526    1.3197 H   0  0  0  0  0  0  0  0  0  0  0  0
   -4.8365   -0.5372    1.6046 H   0  0  0  0  0  0  0  0  0  0  0  0
   -1.5430    1.9527   -0.6394 H   0  0  0  0  0  0  0  0  0  0  0  0
    0.7925    1.6462   -1.1651 H   0  0  0  0  0  0  0  0  0  0  0  0
    2.5137   -1.7572   -1.2852 H   0  0  0  0  0  0  0  0  0  0  0  0
    2.3382   -0.4306   -2.4272 H   0  0  0  0  0  0  0  0  0  0  0  0
    3.5302    1.5405   -2.1026 H   0  0  0  0  0  0  0  0  0  0  0  0
    4.9944    2.9943   -0.7757 H   0  0  0  0  0  0  0  0  0  0  0  0
    5.4324    2.4907    1.6048 H   0  0  0  0  0  0  0  0  0  0  0  0
    4.4098    0.5351    2.6673 H   0  0  0  0  0  0  0  0  0  0  0  0
    0.3429   -2.6242   -0.8417 H   0  0  0  0  0  0  0  0  0  0  0  0
   -2.0118   -2.3473   -0.3150 H   0  0  0  0  0  0  0  0  0  0  0  0
  1  2  1  0
  2  3  1  0
  2  4  1  0
  2  5  1  0
  5  6  1  0
  6  7  2  0
  7  8  1  0
  8  9  1  0
  9 10  1  0
 10 11  2  0
 11 12  1  0
 12 13  2  0
 13 14  1  0
 14 15  2  0
 15 16  1  0
 16 17  1  0
 16 18  2  0
 16 19  2  0
  8 20  2  0
 20 21  1  0
 21  5  2  0
 15 10  1  0
  1 22  1  0
  1 23  1  0
  1 24  1  0
  3 25  1  0
  3 26  1  0
  3 27  1  0
  4 28  1  0
  4 29  1  0
  4 30  1  0
  6 31  1  0
  7 32  1  0
  9 33  1  0
  9 34  1  0
 11 35  1  0
 12 36  1  0
 13 37  1  0
 14 38  1  0
 20 39  1  0
 21 40  1  0
M  RAD  1  17   3
M  END
$$$$
