
     RDKit          3D

 31 32  0  0  0  0  0  0  0  0999 V2000
   -5.4396    0.6200    0.0477 C   0  0  0  0  0  0  0  0  0  0  0  0
   -3.9714    0.3377   -0.0728 C   0  0  0  0  0  0  0  0  0  0  0  0
   -3.3627   -0.6102    0.7636 C   0  0  0  0  0  0  0  0  0  0  0  0
   -2.0017   -0.8998    0.6280 C   0  0  0  0  0  0  0  0  0  0  0  0
   -1.2368   -0.2619   -0.3613 C   0  0  0  0  0  0  0  0  0  0  0  0
    0.2356   -0.5482   -0.4843 C   0  0  0  0  0  0  0  0  0  0  0  0
    1.0441    0.3970    0.4094 C   0  0  0  0  0  0  0  0  0  0  0  0
    2.5204    0.1083    0.2900 C   0  0  0  0  0  0  0  0  0  0  0  0
    3.2851    0.7977   -0.6674 C   0  0  0  0  0  0  0  0  0  0  0  0
    4.6476    0.5243   -0.8154 C   0  0  0  0  0  0  0  0  0  0  0  0
    5.2578   -0.4455   -0.0177 C   0  0  0  0  0  0  0  0  0  0  0  0
    4.5062   -1.1483    0.9270 C   0  0  0  0  0  0  0  0  0  0  0  0
    3.1404   -0.8817    1.0825 C   0  0  0  0  0  0  0  0  0  0  0  0
    2.3921   -1.6241    2.0430 N   0  0  0  0  0  1  0  0  0  0  0  0
   -1.8473    0.6834   -1.2003 C   0  0  0  0  0  0  0  0  0  0  0  0
   -3.2083    0.9728   -1.0643 C   0  0  0  0  0  0  0  0  0  0  0  0
   -5.7789    0.4898    1.0974 H   0  0  0  0  0  0  0  0  0  0  0  0
   -6.0043   -0.0782   -0.6047 H   0  0  0  0  0  0  0  0  0  0  0  0
   -5.6644    1.6640   -0.2584 H   0  0  0  0  0  0  0  0  0  0  0  0
   -3.9404   -1.1220    1.5234 H   0  0  0  0  0  0  0  0  0  0  0  0
   -1.5443   -1.6225    1.2925 H   0  0  0  0  0  0  0  0  0  0  0  0
    0.5557   -0.4274   -1.5430 H   0  0  0  0  0  0  0  0  0  0  0  0
    0.4381   -1.6036   -0.1970 H   0  0  0  0  0  0  0  0  0  0  0  0
    0.7182    0.2898    1.4671 H   0  0  0  0  0  0  0  0  0  0  0  0
    0.8406    1.4507    0.1154 H   0  0  0  0  0  0  0  0  0  0  0  0
    2.8252    1.5464   -1.3007 H   0  0  0  0  0  0  0  0  0  0  0  0
    5.2300    1.0628   -1.5518 H   0  0  0  0  0  0  0  0  0  0  0  0
    6.3129   -0.6565   -0.1349 H   0  0  0  0  0  0  0  0  0  0  0  0
    4.9855   -1.9043    1.5364 H   0  0  0  0  0  0  0  0  0  0  0  0
   -1.2697    1.1946   -1.9606 H   0  0  0  0  0  0  0  0  0  0  0  0
   -3.6657    1.6949   -1.7295 H   0  0  0  0  0  0  0  0  0  0  0  0
  1  2  1  0
  2  3  1  0
  3  4  2  0
  4  5  1  0
  5  6  1  0
  6  7  1  0
  7  8  1  0
  8  9  2  0
  9 10  1  0
 10 11  2  0
 11 12  1  0
 12 13  2  0
 13 14  1  0
  5 15  2  0
 15 16  1  0
 16  2  2  0
 13  8  1  0
  1 17  1  0
  1 18  1  0
  1 19  1  0
  3 20  1  0
  4 21  1  0
  6 22  1  0
  6 23  1  0
  7 24  1  0
  7 25  1  0
  9 26  1  0
 10 27  1  0
 11 28  1  0
 12 29  1  0
 15 30  1  0
 16 31  1  0
M  RAD  1  14   3
M  END
$$$$
