
     RDKit          3D

 31 32  0  0  0  0  0  0  0  0999 V2000
   -5.4398   -0.5847    0.2450 C   0  0  0  0  0  0  0  0  0  0  0  0
   -3.9635   -0.4226    0.0344 C   0  0  0  0  0  0  0  0  0  0  0  0
   -3.4020    0.8582   -0.0794 C   0  0  0  0  0  0  0  0  0  0  0  0
   -2.0317    1.0093   -0.3115 C   0  0  0  0  0  0  0  0  0  0  0  0
   -1.2089   -0.1188   -0.4556 C   0  0  0  0  0  0  0  0  0  0  0  0
    0.2718    0.0435   -0.6707 C   0  0  0  0  0  0  0  0  0  0  0  0
    1.0078    0.0985    0.6713 C   0  0  0  0  0  0  0  0  0  0  0  0
    2.4930    0.2571    0.4570 C   0  0  0  0  0  0  0  0  0  0  0  0
    3.0511    1.5465    0.4066 C   0  0  0  0  0  0  0  0  0  0  0  0
    4.4193    1.7172    0.1790 C   0  0  0  0  0  0  0  0  0  0  0  0
    5.2417    0.6049   -0.0105 C   0  0  0  0  0  0  0  0  0  0  0  0
    4.6973   -0.6812    0.0222 C   0  0  0  0  0  0  0  0  0  0  0  0
    3.3276   -0.8622    0.2493 C   0  0  0  0  0  0  0  0  0  0  0  0
    2.7939   -2.1846    0.2621 N   0  0  0  0  0  1  0  0  0  0  0  0
   -1.7720   -1.3999   -0.3455 C   0  0  0  0  0  0  0  0  0  0  0  0
   -3.1424   -1.5507   -0.1135 C   0  0  0  0  0  0  0  0  0  0  0  0
   -5.6555   -1.5197    0.8047 H   0  0  0  0  0  0  0  0  0  0  0  0
   -5.8480    0.2670    0.8299 H   0  0  0  0  0  0  0  0  0  0  0  0
   -5.9506   -0.6259   -0.7395 H   0  0  0  0  0  0  0  0  0  0  0  0
   -4.0240    1.7398    0.0155 H   0  0  0  0  0  0  0  0  0  0  0  0
   -1.6121    2.0054   -0.3808 H   0  0  0  0  0  0  0  0  0  0  0  0
    0.4693    0.9761   -1.2444 H   0  0  0  0  0  0  0  0  0  0  0  0
    0.6581   -0.8049   -1.2777 H   0  0  0  0  0  0  0  0  0  0  0  0
    0.8025   -0.8258    1.2544 H   0  0  0  0  0  0  0  0  0  0  0  0
    0.6201    0.9508    1.2726 H   0  0  0  0  0  0  0  0  0  0  0  0
    2.4257    2.4203    0.5422 H   0  0  0  0  0  0  0  0  0  0  0  0
    4.8417    2.7132    0.1462 H   0  0  0  0  0  0  0  0  0  0  0  0
    6.3009    0.7395   -0.1878 H   0  0  0  0  0  0  0  0  0  0  0  0
    5.3407   -1.5381   -0.1333 H   0  0  0  0  0  0  0  0  0  0  0  0
   -1.1500   -2.2814   -0.4413 H   0  0  0  0  0  0  0  0  0  0  0  0
   -3.5620   -2.5468   -0.0450 H   0  0  0  0  0  0  0  0  0  0  0  0
  1  2  1  0
  2  3  1  0
  3  4  2  0
  4  5  1  0
  5  6  1  0
  6  7  1  0
  7  8  1  0
  8  9  2  0
  9 10  1  0
 10 11  2  0
 11 12  1  0
 12 13  2  0
 13 14  1  0
  5 15  2  0
 15 16  1  0
 16  2  2  0
 13  8  1  0
  1 17  1  0
  1 18  1  0
  1 19  1  0
  3 20  1  0
  4 21  1  0
  6 22  1  0
  6 23  1  0
  7 24  1  0
  7 25  1  0
  9 26  1  0
 10 27  1  0
 11 28  1  0
 12 29  1  0
 15 30  1  0
 16 31  1  0
M  RAD  1  14   3
M  END
$$$$
