
     RDKit          3D

 31 32  0  0  0  0  0  0  0  0999 V2000
    5.4642    0.1285    0.2703 C   0  0  0  0  0  0  0  0  0  0  0  0
    3.9746   -0.0455    0.2447 C   0  0  0  0  0  0  0  0  0  0  0  0
    3.3535   -0.6624   -0.8518 C   0  0  0  0  0  0  0  0  0  0  0  0
    1.9691   -0.8572   -0.8605 C   0  0  0  0  0  0  0  0  0  0  0  0
    1.1907   -0.4582    0.2374 C   0  0  0  0  0  0  0  0  0  0  0  0
   -0.3036   -0.6360    0.2136 C   0  0  0  0  0  0  0  0  0  0  0  0
   -0.9824    0.5943   -0.3959 C   0  0  0  0  0  0  0  0  0  0  0  0
   -2.4810    0.4189   -0.4165 C   0  0  0  0  0  0  0  0  0  0  0  0
   -3.0963   -0.1446   -1.5481 C   0  0  0  0  0  0  0  0  0  0  0  0
   -4.4792   -0.3437   -1.5764 C   0  0  0  0  0  0  0  0  0  0  0  0
   -5.2599    0.0075   -0.4735 C   0  0  0  0  0  0  0  0  0  0  0  0
   -4.6592    0.5543    0.6629 C   0  0  0  0  0  0  0  0  0  0  0  0
   -3.2743    0.7574    0.7008 C   0  0  0  0  0  0  0  0  0  0  0  0
   -2.6837    1.3025    1.8788 N   0  0  0  0  0  1  0  0  0  0  0  0
    1.8132    0.1554    1.3357 C   0  0  0  0  0  0  0  0  0  0  0  0
    3.1976    0.3500    1.3441 C   0  0  0  0  0  0  0  0  0  0  0  0
    5.8600    0.2693   -0.7581 H   0  0  0  0  0  0  0  0  0  0  0  0
    5.7444    1.0203    0.8706 H   0  0  0  0  0  0  0  0  0  0  0  0
    5.9332   -0.7720    0.7188 H   0  0  0  0  0  0  0  0  0  0  0  0
    3.9401   -0.9889   -1.7017 H   0  0  0  0  0  0  0  0  0  0  0  0
    1.5041   -1.3206   -1.7219 H   0  0  0  0  0  0  0  0  0  0  0  0
   -0.5661   -1.5404   -0.3789 H   0  0  0  0  0  0  0  0  0  0  0  0
   -0.6786   -0.7994    1.2481 H   0  0  0  0  0  0  0  0  0  0  0  0
   -0.7120    1.5030    0.1849 H   0  0  0  0  0  0  0  0  0  0  0  0
   -0.6064    0.7507   -1.4314 H   0  0  0  0  0  0  0  0  0  0  0  0
   -2.5041   -0.4313   -2.4085 H   0  0  0  0  0  0  0  0  0  0  0  0
   -4.9455   -0.7740   -2.4533 H   0  0  0  0  0  0  0  0  0  0  0  0
   -6.3307   -0.1488   -0.4971 H   0  0  0  0  0  0  0  0  0  0  0  0
   -5.2709    0.8169    1.5170 H   0  0  0  0  0  0  0  0  0  0  0  0
    1.2265    0.4811    2.1859 H   0  0  0  0  0  0  0  0  0  0  0  0
    3.6627    0.8127    2.2059 H   0  0  0  0  0  0  0  0  0  0  0  0
  1  2  1  0
  2  3  1  0
  3  4  2  0
  4  5  1  0
  5  6  1  0
  6  7  1  0
  7  8  1  0
  8  9  2  0
  9 10  1  0
 10 11  2  0
 11 12  1  0
 12 13  2  0
 13 14  1  0
  5 15  2  0
 15 16  1  0
 16  2  2  0
 13  8  1  0
  1 17  1  0
  1 18  1  0
  1 19  1  0
  3 20  1  0
  4 21  1  0
  6 22  1  0
  6 23  1  0
  7 24  1  0
  7 25  1  0
  9 26  1  0
 10 27  1  0
 11 28  1  0
 12 29  1  0
 15 30  1  0
 16 31  1  0
M  RAD  1  14   3
M  END
$$$$
