
     RDKit          3D

 31 32  0  0  0  0  0  0  0  0999 V2000
   -5.4629    0.2778   -0.2022 C   0  0  0  0  0  0  0  0  0  0  0  0
   -3.9812    0.1940    0.0158 C   0  0  0  0  0  0  0  0  0  0  0  0
   -3.3445   -1.0550    0.0735 C   0  0  0  0  0  0  0  0  0  0  0  0
   -1.9694   -1.1352    0.3123 C   0  0  0  0  0  0  0  0  0  0  0  0
   -1.2171    0.0317    0.5194 C   0  0  0  0  0  0  0  0  0  0  0  0
    0.2690   -0.0529    0.7419 C   0  0  0  0  0  0  0  0  0  0  0  0
    1.0166   -0.0088   -0.5942 C   0  0  0  0  0  0  0  0  0  0  0  0
    2.5066   -0.0977   -0.3727 C   0  0  0  0  0  0  0  0  0  0  0  0
    3.2558    1.0827   -0.2246 C   0  0  0  0  0  0  0  0  0  0  0  0
    4.6319    1.0227    0.0113 C   0  0  0  0  0  0  0  0  0  0  0  0
    5.2718   -0.2141    0.1117 C   0  0  0  0  0  0  0  0  0  0  0  0
    4.5365   -1.3947   -0.0185 C   0  0  0  0  0  0  0  0  0  0  0  0
    3.1573   -1.3447   -0.2547 C   0  0  0  0  0  0  0  0  0  0  0  0
    2.4269   -2.5643   -0.3681 N   0  0  0  0  0  1  0  0  0  0  0  0
   -1.8554    1.2807    0.4655 C   0  0  0  0  0  0  0  0  0  0  0  0
   -3.2305    1.3605    0.2266 C   0  0  0  0  0  0  0  0  0  0  0  0
   -5.7302    1.2245   -0.7182 H   0  0  0  0  0  0  0  0  0  0  0  0
   -5.8147   -0.5671   -0.8319 H   0  0  0  0  0  0  0  0  0  0  0  0
   -5.9827    0.2401    0.7777 H   0  0  0  0  0  0  0  0  0  0  0  0
   -3.9116   -1.9665   -0.0705 H   0  0  0  0  0  0  0  0  0  0  0  0
   -1.4911   -2.1066    0.3377 H   0  0  0  0  0  0  0  0  0  0  0  0
    0.6024    0.7913    1.3853 H   0  0  0  0  0  0  0  0  0  0  0  0
    0.5149   -0.9948    1.2803 H   0  0  0  0  0  0  0  0  0  0  0  0
    0.6769   -0.8429   -1.2463 H   0  0  0  0  0  0  0  0  0  0  0  0
    0.7699    0.9366   -1.1265 H   0  0  0  0  0  0  0  0  0  0  0  0
    2.7733    2.0502   -0.2903 H   0  0  0  0  0  0  0  0  0  0  0  0
    5.2021    1.9363    0.1197 H   0  0  0  0  0  0  0  0  0  0  0  0
    6.3375   -0.2582    0.2957 H   0  0  0  0  0  0  0  0  0  0  0  0
    5.0392   -2.3498    0.0683 H   0  0  0  0  0  0  0  0  0  0  0  0
   -1.2884    2.1921    0.6103 H   0  0  0  0  0  0  0  0  0  0  0  0
   -3.7088    2.3320    0.2020 H   0  0  0  0  0  0  0  0  0  0  0  0
  1  2  1  0
  2  3  1  0
  3  4  2  0
  4  5  1  0
  5  6  1  0
  6  7  1  0
  7  8  1  0
  8  9  2  0
  9 10  1  0
 10 11  2  0
 11 12  1  0
 12 13  2  0
 13 14  1  0
  5 15  2  0
 15 16  1  0
 16  2  2  0
 13  8  1  0
  1 17  1  0
  1 18  1  0
  1 19  1  0
  3 20  1  0
  4 21  1  0
  6 22  1  0
  6 23  1  0
  7 24  1  0
  7 25  1  0
  9 26  1  0
 10 27  1  0
 11 28  1  0
 12 29  1  0
 15 30  1  0
 16 31  1  0
M  RAD  1  14   3
M  END
$$$$
