
     RDKit          3D

 31 32  0  0  0  0  0  0  0  0999 V2000
   -3.9768    1.7294   -0.1983 C   0  0  0  0  0  0  0  0  0  0  0  0
   -2.8505    0.7474   -0.3282 C   0  0  0  0  0  0  0  0  0  0  0  0
   -1.7437    1.0444   -1.1376 C   0  0  0  0  0  0  0  0  0  0  0  0
   -0.7097    0.1159   -1.2861 C   0  0  0  0  0  0  0  0  0  0  0  0
   -0.7769   -1.1294   -0.6408 C   0  0  0  0  0  0  0  0  0  0  0  0
    0.3616   -2.1108   -0.7574 C   0  0  0  0  0  0  0  0  0  0  0  0
    1.3054   -2.0339    0.4512 C   0  0  0  0  0  0  0  0  0  0  0  0
    1.9893   -0.6892    0.5473 C   0  0  0  0  0  0  0  0  0  0  0  0
    1.4574    0.2999    1.3939 C   0  0  0  0  0  0  0  0  0  0  0  0
    2.0475    1.5644    1.4633 C   0  0  0  0  0  0  0  0  0  0  0  0
    3.1707    1.8562    0.6873 C   0  0  0  0  0  0  0  0  0  0  0  0
    3.7052    0.8850   -0.1626 C   0  0  0  0  0  0  0  0  0  0  0  0
    3.1197   -0.3843   -0.2406 C   0  0  0  0  0  0  0  0  0  0  0  0
    3.6772   -1.3542   -1.1248 N   0  0  0  0  0  1  0  0  0  0  0  0
   -1.8892   -1.4293    0.1608 C   0  0  0  0  0  0  0  0  0  0  0  0
   -2.9240   -0.5010    0.3079 C   0  0  0  0  0  0  0  0  0  0  0  0
   -3.6000    2.7710   -0.2817 H   0  0  0  0  0  0  0  0  0  0  0  0
   -4.4772    1.6237    0.7879 H   0  0  0  0  0  0  0  0  0  0  0  0
   -4.7197    1.5473   -1.0027 H   0  0  0  0  0  0  0  0  0  0  0  0
   -1.6784    1.9967   -1.6492 H   0  0  0  0  0  0  0  0  0  0  0  0
    0.1469    0.3705   -1.8981 H   0  0  0  0  0  0  0  0  0  0  0  0
    0.9331   -1.9334   -1.6946 H   0  0  0  0  0  0  0  0  0  0  0  0
   -0.0496   -3.1414   -0.8256 H   0  0  0  0  0  0  0  0  0  0  0  0
    2.0700   -2.8357    0.3644 H   0  0  0  0  0  0  0  0  0  0  0  0
    0.7355   -2.2470    1.3825 H   0  0  0  0  0  0  0  0  0  0  0  0
    0.5785    0.0947    1.9928 H   0  0  0  0  0  0  0  0  0  0  0  0
    1.6306    2.3201    2.1164 H   0  0  0  0  0  0  0  0  0  0  0  0
    3.6256    2.8368    0.7418 H   0  0  0  0  0  0  0  0  0  0  0  0
    4.5738    1.1211   -0.7647 H   0  0  0  0  0  0  0  0  0  0  0  0
   -1.9529   -2.3812    0.6734 H   0  0  0  0  0  0  0  0  0  0  0  0
   -3.7795   -0.7538    0.9221 H   0  0  0  0  0  0  0  0  0  0  0  0
  1  2  1  0
  2  3  1  0
  3  4  2  0
  4  5  1  0
  5  6  1  0
  6  7  1  0
  7  8  1  0
  8  9  2  0
  9 10  1  0
 10 11  2  0
 11 12  1  0
 12 13  2  0
 13 14  1  0
  5 15  2  0
 15 16  1  0
 16  2  2  0
 13  8  1  0
  1 17  1  0
  1 18  1  0
  1 19  1  0
  3 20  1  0
  4 21  1  0
  6 22  1  0
  6 23  1  0
  7 24  1  0
  7 25  1  0
  9 26  1  0
 10 27  1  0
 11 28  1  0
 12 29  1  0
 15 30  1  0
 16 31  1  0
M  RAD  1  14   3
M  END
$$$$
