
     RDKit          3D

 31 32  0  0  0  0  0  0  0  0999 V2000
    3.7994   -1.9454   -0.4755 C   0  0  0  0  0  0  0  0  0  0  0  0
    2.8345   -0.8777   -0.0532 C   0  0  0  0  0  0  0  0  0  0  0  0
    2.7449   -0.4990    1.2949 C   0  0  0  0  0  0  0  0  0  0  0  0
    1.8167    0.4662    1.6960 C   0  0  0  0  0  0  0  0  0  0  0  0
    0.9620    1.0614    0.7552 C   0  0  0  0  0  0  0  0  0  0  0  0
   -0.0740    2.0632    1.1979 C   0  0  0  0  0  0  0  0  0  0  0  0
   -1.3143    1.3773    1.7884 C   0  0  0  0  0  0  0  0  0  0  0  0
   -2.0349    0.5345    0.7610 C   0  0  0  0  0  0  0  0  0  0  0  0
   -1.7827   -0.8477    0.6981 C   0  0  0  0  0  0  0  0  0  0  0  0
   -2.4035   -1.6372   -0.2731 C   0  0  0  0  0  0  0  0  0  0  0  0
   -3.2787   -1.0564   -1.1928 C   0  0  0  0  0  0  0  0  0  0  0  0
   -3.5330    0.3163   -1.1456 C   0  0  0  0  0  0  0  0  0  0  0  0
   -2.9140    1.1161   -0.1773 C   0  0  0  0  0  0  0  0  0  0  0  0
   -3.1812    2.5166   -0.1579 N   0  0  0  0  0  1  0  0  0  0  0  0
    1.0357    0.6639   -0.5895 C   0  0  0  0  0  0  0  0  0  0  0  0
    1.9629   -0.3023   -0.9899 C   0  0  0  0  0  0  0  0  0  0  0  0
    3.3095   -2.9382   -0.3951 H   0  0  0  0  0  0  0  0  0  0  0  0
    4.7036   -1.9339    0.1697 H   0  0  0  0  0  0  0  0  0  0  0  0
    4.1251   -1.7859   -1.5256 H   0  0  0  0  0  0  0  0  0  0  0  0
    3.3905   -0.9538    2.0360 H   0  0  0  0  0  0  0  0  0  0  0  0
    1.7568    0.7433    2.7413 H   0  0  0  0  0  0  0  0  0  0  0  0
   -0.3718    2.7154    0.3479 H   0  0  0  0  0  0  0  0  0  0  0  0
    0.3684    2.7293    1.9703 H   0  0  0  0  0  0  0  0  0  0  0  0
   -1.0155    0.7547    2.6605 H   0  0  0  0  0  0  0  0  0  0  0  0
   -2.0038    2.1543    2.1829 H   0  0  0  0  0  0  0  0  0  0  0  0
   -1.0963   -1.3123    1.3954 H   0  0  0  0  0  0  0  0  0  0  0  0
   -2.2025   -2.6999   -0.3151 H   0  0  0  0  0  0  0  0  0  0  0  0
   -3.7576   -1.6697   -1.9450 H   0  0  0  0  0  0  0  0  0  0  0  0
   -4.2094    0.7596   -1.8657 H   0  0  0  0  0  0  0  0  0  0  0  0
    0.3654    1.0916   -1.3249 H   0  0  0  0  0  0  0  0  0  0  0  0
    1.9980   -0.6045   -2.0293 H   0  0  0  0  0  0  0  0  0  0  0  0
  1  2  1  0
  2  3  1  0
  3  4  2  0
  4  5  1  0
  5  6  1  0
  6  7  1  0
  7  8  1  0
  8  9  2  0
  9 10  1  0
 10 11  2  0
 11 12  1  0
 12 13  2  0
 13 14  1  0
  5 15  2  0
 15 16  1  0
 16  2  2  0
 13  8  1  0
  1 17  1  0
  1 18  1  0
  1 19  1  0
  3 20  1  0
  4 21  1  0
  6 22  1  0
  6 23  1  0
  7 24  1  0
  7 25  1  0
  9 26  1  0
 10 27  1  0
 11 28  1  0
 12 29  1  0
 15 30  1  0
 16 31  1  0
M  RAD  1  14   3
M  END
$$$$
