
     RDKit          3D

 31 32  0  0  0  0  0  0  0  0999 V2000
   -3.9075    1.8204    0.5070 C   0  0  0  0  0  0  0  0  0  0  0  0
   -2.8387    0.7802    0.3472 C   0  0  0  0  0  0  0  0  0  0  0  0
   -2.0527    0.7471   -0.8145 C   0  0  0  0  0  0  0  0  0  0  0  0
   -1.0796   -0.2424   -0.9792 C   0  0  0  0  0  0  0  0  0  0  0  0
   -0.8912   -1.2228    0.0083 C   0  0  0  0  0  0  0  0  0  0  0  0
    0.1932   -2.2591   -0.1435 C   0  0  0  0  0  0  0  0  0  0  0  0
    1.4630   -1.8715    0.6277 C   0  0  0  0  0  0  0  0  0  0  0  0
    2.0872   -0.6059    0.0856 C   0  0  0  0  0  0  0  0  0  0  0  0
    1.8059    0.6255    0.7039 C   0  0  0  0  0  0  0  0  0  0  0  0
    2.3360    1.8124    0.1916 C   0  0  0  0  0  0  0  0  0  0  0  0
    3.1483    1.7836   -0.9435 C   0  0  0  0  0  0  0  0  0  0  0  0
    3.4302    0.5680   -1.5713 C   0  0  0  0  0  0  0  0  0  0  0  0
    2.9020   -0.6263   -1.0665 C   0  0  0  0  0  0  0  0  0  0  0  0
    3.1950   -1.8526   -1.7326 N   0  0  0  0  0  1  0  0  0  0  0  0
   -1.6847   -1.1946    1.1656 C   0  0  0  0  0  0  0  0  0  0  0  0
   -2.6590   -0.2056    1.3292 C   0  0  0  0  0  0  0  0  0  0  0  0
   -3.6184    2.7614   -0.0077 H   0  0  0  0  0  0  0  0  0  0  0  0
   -4.8561    1.4450    0.0697 H   0  0  0  0  0  0  0  0  0  0  0  0
   -4.0704    2.0531    1.5809 H   0  0  0  0  0  0  0  0  0  0  0  0
   -2.1893    1.4905   -1.5902 H   0  0  0  0  0  0  0  0  0  0  0  0
   -0.4678   -0.2401   -1.8730 H   0  0  0  0  0  0  0  0  0  0  0  0
    0.4361   -2.4129   -1.2177 H   0  0  0  0  0  0  0  0  0  0  0  0
   -0.1762   -3.2342    0.2420 H   0  0  0  0  0  0  0  0  0  0  0  0
    1.2212   -1.7535    1.7071 H   0  0  0  0  0  0  0  0  0  0  0  0
    2.1945   -2.7055    0.5624 H   0  0  0  0  0  0  0  0  0  0  0  0
    1.1669    0.6675    1.5774 H   0  0  0  0  0  0  0  0  0  0  0  0
    2.1132    2.7558    0.6729 H   0  0  0  0  0  0  0  0  0  0  0  0
    3.5569    2.7043   -1.3394 H   0  0  0  0  0  0  0  0  0  0  0  0
    4.0572    0.5551   -2.4540 H   0  0  0  0  0  0  0  0  0  0  0  0
   -1.5464   -1.9373    1.9415 H   0  0  0  0  0  0  0  0  0  0  0  0
   -3.2691   -0.2056    2.2241 H   0  0  0  0  0  0  0  0  0  0  0  0
  1  2  1  0
  2  3  1  0
  3  4  2  0
  4  5  1  0
  5  6  1  0
  6  7  1  0
  7  8  1  0
  8  9  2  0
  9 10  1  0
 10 11  2  0
 11 12  1  0
 12 13  2  0
 13 14  1  0
  5 15  2  0
 15 16  1  0
 16  2  2  0
 13  8  1  0
  1 17  1  0
  1 18  1  0
  1 19  1  0
  3 20  1  0
  4 21  1  0
  6 22  1  0
  6 23  1  0
  7 24  1  0
  7 25  1  0
  9 26  1  0
 10 27  1  0
 11 28  1  0
 12 29  1  0
 15 30  1  0
 16 31  1  0
M  RAD  1  14   3
M  END
$$$$
