
     RDKit          3D

 31 32  0  0  0  0  0  0  0  0999 V2000
   -5.4729   -0.0312   -0.1405 C   0  0  0  0  0  0  0  0  0  0  0  0
   -3.9801    0.1140   -0.1645 C   0  0  0  0  0  0  0  0  0  0  0  0
   -3.3152    0.7559    0.8913 C   0  0  0  0  0  0  0  0  0  0  0  0
   -1.9278    0.9233    0.8529 C   0  0  0  0  0  0  0  0  0  0  0  0
   -1.1900    0.4715   -0.2526 C   0  0  0  0  0  0  0  0  0  0  0  0
    0.3074    0.6203   -0.2786 C   0  0  0  0  0  0  0  0  0  0  0  0
    0.9808   -0.6015    0.3536 C   0  0  0  0  0  0  0  0  0  0  0  0
    2.4824   -0.4553    0.3243 C   0  0  0  0  0  0  0  0  0  0  0  0
    3.1416    0.1345    1.4171 C   0  0  0  0  0  0  0  0  0  0  0  0
    4.5283    0.3070    1.3981 C   0  0  0  0  0  0  0  0  0  0  0  0
    5.2690   -0.0974    0.2858 C   0  0  0  0  0  0  0  0  0  0  0  0
    4.6245   -0.6710   -0.8128 C   0  0  0  0  0  0  0  0  0  0  0  0
    3.2356   -0.8477   -0.8032 C   0  0  0  0  0  0  0  0  0  0  0  0
    2.5999   -1.4212   -1.9436 N   0  0  0  0  0  1  0  0  0  0  0  0
   -1.8564   -0.1671   -1.3102 C   0  0  0  0  0  0  0  0  0  0  0  0
   -3.2438   -0.3344   -1.2715 C   0  0  0  0  0  0  0  0  0  0  0  0
   -5.9380    0.8625   -0.6063 H   0  0  0  0  0  0  0  0  0  0  0  0
   -5.7875   -0.9373   -0.7009 H   0  0  0  0  0  0  0  0  0  0  0  0
   -5.8404   -0.1287    0.9033 H   0  0  0  0  0  0  0  0  0  0  0  0
   -3.8700    1.1230    1.7460 H   0  0  0  0  0  0  0  0  0  0  0  0
   -1.4286    1.4068    1.6836 H   0  0  0  0  0  0  0  0  0  0  0  0
    0.6044    1.5391    0.2741 H   0  0  0  0  0  0  0  0  0  0  0  0
    0.6544    0.7406   -1.3286 H   0  0  0  0  0  0  0  0  0  0  0  0
    0.6330   -0.7148    1.4044 H   0  0  0  0  0  0  0  0  0  0  0  0
    0.6762   -1.5242   -0.1870 H   0  0  0  0  0  0  0  0  0  0  0  0
    2.5809    0.4623    2.2838 H   0  0  0  0  0  0  0  0  0  0  0  0
    5.0286    0.7579    2.2454 H   0  0  0  0  0  0  0  0  0  0  0  0
    6.3428    0.0384    0.2727 H   0  0  0  0  0  0  0  0  0  0  0  0
    5.2055   -0.9748   -1.6747 H   0  0  0  0  0  0  0  0  0  0  0  0
   -1.3015   -0.5335   -2.1652 H   0  0  0  0  0  0  0  0  0  0  0  0
   -3.7430   -0.8171   -2.1027 H   0  0  0  0  0  0  0  0  0  0  0  0
  1  2  1  0
  2  3  1  0
  3  4  2  0
  4  5  1  0
  5  6  1  0
  6  7  1  0
  7  8  1  0
  8  9  2  0
  9 10  1  0
 10 11  2  0
 11 12  1  0
 12 13  2  0
 13 14  1  0
  5 15  2  0
 15 16  1  0
 16  2  2  0
 13  8  1  0
  1 17  1  0
  1 18  1  0
  1 19  1  0
  3 20  1  0
  4 21  1  0
  6 22  1  0
  6 23  1  0
  7 24  1  0
  7 25  1  0
  9 26  1  0
 10 27  1  0
 11 28  1  0
 12 29  1  0
 15 30  1  0
 16 31  1  0
M  RAD  1  14   3
M  END
$$$$
