
     RDKit          3D

 31 32  0  0  0  0  0  0  0  0999 V2000
    3.9875    1.2649    1.2598 C   0  0  0  0  0  0  0  0  0  0  0  0
    2.8783    0.3420    0.8506 C   0  0  0  0  0  0  0  0  0  0  0  0
    2.9184   -0.3026   -0.3950 C   0  0  0  0  0  0  0  0  0  0  0  0
    1.8651   -1.1302   -0.7950 C   0  0  0  0  0  0  0  0  0  0  0  0
    0.7553   -1.3196    0.0430 C   0  0  0  0  0  0  0  0  0  0  0  0
   -0.4032   -2.1701   -0.4124 C   0  0  0  0  0  0  0  0  0  0  0  0
   -1.3363   -1.4020   -1.3595 C   0  0  0  0  0  0  0  0  0  0  0  0
   -1.9925   -0.2259   -0.6729 C   0  0  0  0  0  0  0  0  0  0  0  0
   -1.4350    1.0576   -0.8129 C   0  0  0  0  0  0  0  0  0  0  0  0
   -1.9991    2.1506   -0.1501 C   0  0  0  0  0  0  0  0  0  0  0  0
   -3.1218    1.9742    0.6608 C   0  0  0  0  0  0  0  0  0  0  0  0
   -3.6816    0.7035    0.8136 C   0  0  0  0  0  0  0  0  0  0  0  0
   -3.1221   -0.3981    0.1553 C   0  0  0  0  0  0  0  0  0  0  0  0
   -3.7052   -1.6866    0.3372 N   0  0  0  0  0  1  0  0  0  0  0  0
    0.7050   -0.6547    1.2788 C   0  0  0  0  0  0  0  0  0  0  0  0
    1.7576    0.1739    1.6776 C   0  0  0  0  0  0  0  0  0  0  0  0
    4.0945    1.2825    2.3654 H   0  0  0  0  0  0  0  0  0  0  0  0
    3.7646    2.2913    0.9010 H   0  0  0  0  0  0  0  0  0  0  0  0
    4.9546    0.9313    0.8268 H   0  0  0  0  0  0  0  0  0  0  0  0
    3.7628   -0.1613   -1.0583 H   0  0  0  0  0  0  0  0  0  0  0  0
    1.9093   -1.6160   -1.7619 H   0  0  0  0  0  0  0  0  0  0  0  0
   -0.9781   -2.5442    0.4629 H   0  0  0  0  0  0  0  0  0  0  0  0
   -0.0128   -3.0656   -0.9430 H   0  0  0  0  0  0  0  0  0  0  0  0
   -2.1174   -2.0956   -1.7386 H   0  0  0  0  0  0  0  0  0  0  0  0
   -0.7639   -1.0614   -2.2504 H   0  0  0  0  0  0  0  0  0  0  0  0
   -0.5562    1.2100   -1.4274 H   0  0  0  0  0  0  0  0  0  0  0  0
   -1.5627    3.1346   -0.2623 H   0  0  0  0  0  0  0  0  0  0  0  0
   -3.5565    2.8221    1.1742 H   0  0  0  0  0  0  0  0  0  0  0  0
   -4.5494    0.5746    1.4483 H   0  0  0  0  0  0  0  0  0  0  0  0
   -0.1558   -0.7664    1.9266 H   0  0  0  0  0  0  0  0  0  0  0  0
    1.6965    0.6874    2.6292 H   0  0  0  0  0  0  0  0  0  0  0  0
  1  2  1  0
  2  3  1  0
  3  4  2  0
  4  5  1  0
  5  6  1  0
  6  7  1  0
  7  8  1  0
  8  9  2  0
  9 10  1  0
 10 11  2  0
 11 12  1  0
 12 13  2  0
 13 14  1  0
  5 15  2  0
 15 16  1  0
 16  2  2  0
 13  8  1  0
  1 17  1  0
  1 18  1  0
  1 19  1  0
  3 20  1  0
  4 21  1  0
  6 22  1  0
  6 23  1  0
  7 24  1  0
  7 25  1  0
  9 26  1  0
 10 27  1  0
 11 28  1  0
 12 29  1  0
 15 30  1  0
 16 31  1  0
M  RAD  1  14   3
M  END
$$$$
