
     RDKit          3D

 31 32  0  0  0  0  0  0  0  0999 V2000
    3.9406   -1.4583   -1.2160 C   0  0  0  0  0  0  0  0  0  0  0  0
    2.8522   -0.5565   -0.7143 C   0  0  0  0  0  0  0  0  0  0  0  0
    1.8189   -0.1509   -1.5723 C   0  0  0  0  0  0  0  0  0  0  0  0
    0.8228    0.7166   -1.1154 C   0  0  0  0  0  0  0  0  0  0  0  0
    0.8566    1.2040    0.2011 C   0  0  0  0  0  0  0  0  0  0  0  0
   -0.2453    2.0975    0.7115 C   0  0  0  0  0  0  0  0  0  0  0  0
   -1.2982    1.3080    1.5023 C   0  0  0  0  0  0  0  0  0  0  0  0
   -2.0163    0.3003    0.6339 C   0  0  0  0  0  0  0  0  0  0  0  0
   -1.5860   -1.0386    0.6251 C   0  0  0  0  0  0  0  0  0  0  0  0
   -2.2066   -1.9762   -0.2041 C   0  0  0  0  0  0  0  0  0  0  0  0
   -3.2593   -1.5878   -1.0348 C   0  0  0  0  0  0  0  0  0  0  0  0
   -3.6923   -0.2598   -1.0406 C   0  0  0  0  0  0  0  0  0  0  0  0
   -3.0753    0.6875   -0.2147 C   0  0  0  0  0  0  0  0  0  0  0  0
   -3.5281    2.0393   -0.2481 N   0  0  0  0  0  1  0  0  0  0  0  0
    1.8961    0.8054    1.0556 C   0  0  0  0  0  0  0  0  0  0  0  0
    2.8930   -0.0610    0.5977 C   0  0  0  0  0  0  0  0  0  0  0  0
    4.3498   -2.0765   -0.3886 H   0  0  0  0  0  0  0  0  0  0  0  0
    3.5511   -2.1455   -1.9971 H   0  0  0  0  0  0  0  0  0  0  0  0
    4.7583   -0.8447   -1.6483 H   0  0  0  0  0  0  0  0  0  0  0  0
    1.7810   -0.5105   -2.5932 H   0  0  0  0  0  0  0  0  0  0  0  0
    0.0213    1.0025   -1.7853 H   0  0  0  0  0  0  0  0  0  0  0  0
    0.1921    2.8750    1.3750 H   0  0  0  0  0  0  0  0  0  0  0  0
   -0.7313    2.6355   -0.1317 H   0  0  0  0  0  0  0  0  0  0  0  0
   -0.8123    0.8006    2.3649 H   0  0  0  0  0  0  0  0  0  0  0  0
   -2.0343    2.0194    1.9346 H   0  0  0  0  0  0  0  0  0  0  0  0
   -0.7621   -1.3541    1.2534 H   0  0  0  0  0  0  0  0  0  0  0  0
   -1.8680   -3.0042   -0.2056 H   0  0  0  0  0  0  0  0  0  0  0  0
   -3.7379   -2.3156   -1.6772 H   0  0  0  0  0  0  0  0  0  0  0  0
   -4.5063    0.0342   -1.6915 H   0  0  0  0  0  0  0  0  0  0  0  0
    1.9324    1.1642    2.0768 H   0  0  0  0  0  0  0  0  0  0  0  0
    3.6932   -0.3497    1.2680 H   0  0  0  0  0  0  0  0  0  0  0  0
  1  2  1  0
  2  3  1  0
  3  4  2  0
  4  5  1  0
  5  6  1  0
  6  7  1  0
  7  8  1  0
  8  9  2  0
  9 10  1  0
 10 11  2  0
 11 12  1  0
 12 13  2  0
 13 14  1  0
  5 15  2  0
 15 16  1  0
 16  2  2  0
 13  8  1  0
  1 17  1  0
  1 18  1  0
  1 19  1  0
  3 20  1  0
  4 21  1  0
  6 22  1  0
  6 23  1  0
  7 24  1  0
  7 25  1  0
  9 26  1  0
 10 27  1  0
 11 28  1  0
 12 29  1  0
 15 30  1  0
 16 31  1  0
M  RAD  1  14   3
M  END
$$$$
