
     RDKit          3D

 31 32  0  0  0  0  0  0  0  0999 V2000
   -3.9109    0.3716    1.8320 C   0  0  0  0  0  0  0  0  0  0  0  0
   -2.8827    0.1490    0.7629 C   0  0  0  0  0  0  0  0  0  0  0  0
   -1.9710   -0.9120    0.8694 C   0  0  0  0  0  0  0  0  0  0  0  0
   -0.9868   -1.0963   -0.1057 C   0  0  0  0  0  0  0  0  0  0  0  0
   -0.8958   -0.2164   -1.1962 C   0  0  0  0  0  0  0  0  0  0  0  0
    0.1990   -0.3818   -2.2194 C   0  0  0  0  0  0  0  0  0  0  0  0
    1.3900    0.5445   -1.9345 C   0  0  0  0  0  0  0  0  0  0  0  0
    2.0616    0.2114   -0.6219 C   0  0  0  0  0  0  0  0  0  0  0  0
    1.7227    0.9374    0.5339 C   0  0  0  0  0  0  0  0  0  0  0  0
    2.2978    0.6160    1.7660 C   0  0  0  0  0  0  0  0  0  0  0  0
    3.2133   -0.4340    1.8584 C   0  0  0  0  0  0  0  0  0  0  0  0
    3.5539   -1.1674    0.7194 C   0  0  0  0  0  0  0  0  0  0  0  0
    2.9812   -0.8541   -0.5192 C   0  0  0  0  0  0  0  0  0  0  0  0
    3.3365   -1.6256   -1.6646 N   0  0  0  0  0  1  0  0  0  0  0  0
   -1.7919    0.8599   -1.2880 C   0  0  0  0  0  0  0  0  0  0  0  0
   -2.7771    1.0430   -0.3133 C   0  0  0  0  0  0  0  0  0  0  0  0
   -3.4854    1.0236    2.6231 H   0  0  0  0  0  0  0  0  0  0  0  0
   -4.2198   -0.5943    2.2854 H   0  0  0  0  0  0  0  0  0  0  0  0
   -4.8162    0.8575    1.4098 H   0  0  0  0  0  0  0  0  0  0  0  0
   -2.0192   -1.5940    1.7093 H   0  0  0  0  0  0  0  0  0  0  0  0
   -0.2865   -1.9161   -0.0031 H   0  0  0  0  0  0  0  0  0  0  0  0
    0.5424   -1.4389   -2.2534 H   0  0  0  0  0  0  0  0  0  0  0  0
   -0.2047   -0.1458   -3.2281 H   0  0  0  0  0  0  0  0  0  0  0  0
    1.0472    1.6028   -1.9375 H   0  0  0  0  0  0  0  0  0  0  0  0
    2.1251    0.4536   -2.7630 H   0  0  0  0  0  0  0  0  0  0  0  0
    1.0042    1.7464    0.4827 H   0  0  0  0  0  0  0  0  0  0  0  0
    2.0301    1.1790    2.6507 H   0  0  0  0  0  0  0  0  0  0  0  0
    3.6568   -0.6820    2.8140 H   0  0  0  0  0  0  0  0  0  0  0  0
    4.2612   -1.9833    0.8007 H   0  0  0  0  0  0  0  0  0  0  0  0
   -1.7206    1.5621   -2.1094 H   0  0  0  0  0  0  0  0  0  0  0  0
   -3.4545    1.8840   -0.3958 H   0  0  0  0  0  0  0  0  0  0  0  0
  1  2  1  0
  2  3  1  0
  3  4  2  0
  4  5  1  0
  5  6  1  0
  6  7  1  0
  7  8  1  0
  8  9  2  0
  9 10  1  0
 10 11  2  0
 11 12  1  0
 12 13  2  0
 13 14  1  0
  5 15  2  0
 15 16  1  0
 16  2  2  0
 13  8  1  0
  1 17  1  0
  1 18  1  0
  1 19  1  0
  3 20  1  0
  4 21  1  0
  6 22  1  0
  6 23  1  0
  7 24  1  0
  7 25  1  0
  9 26  1  0
 10 27  1  0
 11 28  1  0
 12 29  1  0
 15 30  1  0
 16 31  1  0
M  RAD  1  14   3
M  END
$$$$
