
     RDKit          3D

 31 32  0  0  0  0  0  0  0  0999 V2000
   -5.4279   -0.6797    0.1630 C   0  0  0  0  0  0  0  0  0  0  0  0
   -3.9522   -0.5178   -0.0511 C   0  0  0  0  0  0  0  0  0  0  0  0
   -3.4182    0.7390   -0.3737 C   0  0  0  0  0  0  0  0  0  0  0  0
   -2.0476    0.8837   -0.6085 C   0  0  0  0  0  0  0  0  0  0  0  0
   -1.1966   -0.2310   -0.5462 C   0  0  0  0  0  0  0  0  0  0  0  0
    0.2837   -0.0696   -0.7647 C   0  0  0  0  0  0  0  0  0  0  0  0
    0.9933    0.2317    0.5588 C   0  0  0  0  0  0  0  0  0  0  0  0
    2.4782    0.3899    0.3418 C   0  0  0  0  0  0  0  0  0  0  0  0
    3.0073    1.6660    0.0806 C   0  0  0  0  0  0  0  0  0  0  0  0
    4.3752    1.8308   -0.1531 C   0  0  0  0  0  0  0  0  0  0  0  0
    5.2263    0.7241   -0.1387 C   0  0  0  0  0  0  0  0  0  0  0  0
    4.7111   -0.5513    0.1046 C   0  0  0  0  0  0  0  0  0  0  0  0
    3.3420   -0.7265    0.3396 C   0  0  0  0  0  0  0  0  0  0  0  0
    2.8387   -2.0408    0.5698 N   0  0  0  0  0  1  0  0  0  0  0  0
   -1.7322   -1.4887   -0.2272 C   0  0  0  0  0  0  0  0  0  0  0  0
   -3.1028   -1.6331    0.0075 C   0  0  0  0  0  0  0  0  0  0  0  0
   -5.8665    0.2484    0.5878 H   0  0  0  0  0  0  0  0  0  0  0  0
   -5.6324   -1.5109    0.8711 H   0  0  0  0  0  0  0  0  0  0  0  0
   -5.9194   -0.9013   -0.8072 H   0  0  0  0  0  0  0  0  0  0  0  0
   -4.0619    1.6075   -0.4395 H   0  0  0  0  0  0  0  0  0  0  0  0
   -1.6498    1.8639   -0.8407 H   0  0  0  0  0  0  0  0  0  0  0  0
    0.4703    0.7567   -1.4859 H   0  0  0  0  0  0  0  0  0  0  0  0
    0.7004   -0.9986   -1.2126 H   0  0  0  0  0  0  0  0  0  0  0  0
    0.7986   -0.5850    1.2878 H   0  0  0  0  0  0  0  0  0  0  0  0
    0.5750    1.1635    1.0005 H   0  0  0  0  0  0  0  0  0  0  0  0
    2.3595    2.5337    0.0565 H   0  0  0  0  0  0  0  0  0  0  0  0
    4.7751    2.8174   -0.3490 H   0  0  0  0  0  0  0  0  0  0  0  0
    6.2852    0.8540   -0.3213 H   0  0  0  0  0  0  0  0  0  0  0  0
    5.3769   -1.4053    0.1064 H   0  0  0  0  0  0  0  0  0  0  0  0
   -1.0884   -2.3573   -0.1623 H   0  0  0  0  0  0  0  0  0  0  0  0
   -3.5006   -2.6135    0.2389 H   0  0  0  0  0  0  0  0  0  0  0  0
  1  2  1  0
  2  3  1  0
  3  4  2  0
  4  5  1  0
  5  6  1  0
  6  7  1  0
  7  8  1  0
  8  9  2  0
  9 10  1  0
 10 11  2  0
 11 12  1  0
 12 13  2  0
 13 14  1  0
  5 15  2  0
 15 16  1  0
 16  2  2  0
 13  8  1  0
  1 17  1  0
  1 18  1  0
  1 19  1  0
  3 20  1  0
  4 21  1  0
  6 22  1  0
  6 23  1  0
  7 24  1  0
  7 25  1  0
  9 26  1  0
 10 27  1  0
 11 28  1  0
 12 29  1  0
 15 30  1  0
 16 31  1  0
M  RAD  1  14   3
M  END
$$$$
