
     RDKit          3D

 31 32  0  0  0  0  0  0  0  0999 V2000
    2.8678   -2.6117   -2.1183 C   0  0  0  0  0  0  0  0  0  0  0  0
    2.3393   -1.4060   -1.3995 C   0  0  0  0  0  0  0  0  0  0  0  0
    2.3626   -0.1472   -2.0188 C   0  0  0  0  0  0  0  0  0  0  0  0
    1.8322    0.9695   -1.3664 C   0  0  0  0  0  0  0  0  0  0  0  0
    1.2665    0.8412   -0.0884 C   0  0  0  0  0  0  0  0  0  0  0  0
    0.6477    2.0362    0.5912 C   0  0  0  0  0  0  0  0  0  0  0  0
   -0.7680    2.3194    0.0684 C   0  0  0  0  0  0  0  0  0  0  0  0
   -1.7203    1.1873    0.3788 C   0  0  0  0  0  0  0  0  0  0  0  0
   -1.9772    0.2098   -0.5992 C   0  0  0  0  0  0  0  0  0  0  0  0
   -2.8186   -0.8694   -0.3175 C   0  0  0  0  0  0  0  0  0  0  0  0
   -3.4089   -0.9866    0.9421 C   0  0  0  0  0  0  0  0  0  0  0  0
   -3.1571   -0.0263    1.9247 C   0  0  0  0  0  0  0  0  0  0  0  0
   -2.3137    1.0577    1.6526 C   0  0  0  0  0  0  0  0  0  0  0  0
   -2.0633    2.0180    2.6765 N   0  0  0  0  0  1  0  0  0  0  0  0
    1.2216   -0.4235    0.5202 C   0  0  0  0  0  0  0  0  0  0  0  0
    1.7506   -1.5401   -0.1331 C   0  0  0  0  0  0  0  0  0  0  0  0
    2.0540   -3.0695   -2.7184 H   0  0  0  0  0  0  0  0  0  0  0  0
    3.7026   -2.3298   -2.7948 H   0  0  0  0  0  0  0  0  0  0  0  0
    3.2510   -3.3624   -1.3946 H   0  0  0  0  0  0  0  0  0  0  0  0
    2.7874   -0.0310   -3.0082 H   0  0  0  0  0  0  0  0  0  0  0  0
    1.8533    1.9330   -1.8607 H   0  0  0  0  0  0  0  0  0  0  0  0
    0.6205    1.8857    1.6926 H   0  0  0  0  0  0  0  0  0  0  0  0
    1.2825    2.9303    0.4077 H   0  0  0  0  0  0  0  0  0  0  0  0
   -1.1425    3.2586    0.5295 H   0  0  0  0  0  0  0  0  0  0  0  0
   -0.7296    2.5048   -1.0278 H   0  0  0  0  0  0  0  0  0  0  0  0
   -1.5170    0.2781   -1.5772 H   0  0  0  0  0  0  0  0  0  0  0  0
   -3.0096   -1.6180   -1.0756 H   0  0  0  0  0  0  0  0  0  0  0  0
   -4.0595   -1.8242    1.1585 H   0  0  0  0  0  0  0  0  0  0  0  0
   -3.6152   -0.1273    2.9007 H   0  0  0  0  0  0  0  0  0  0  0  0
    0.7639   -0.5471    1.4940 H   0  0  0  0  0  0  0  0  0  0  0  0
    1.6973   -2.5095    0.3468 H   0  0  0  0  0  0  0  0  0  0  0  0
  1  2  1  0
  2  3  1  0
  3  4  2  0
  4  5  1  0
  5  6  1  0
  6  7  1  0
  7  8  1  0
  8  9  2  0
  9 10  1  0
 10 11  2  0
 11 12  1  0
 12 13  2  0
 13 14  1  0
  5 15  2  0
 15 16  1  0
 16  2  2  0
 13  8  1  0
  1 17  1  0
  1 18  1  0
  1 19  1  0
  3 20  1  0
  4 21  1  0
  6 22  1  0
  6 23  1  0
  7 24  1  0
  7 25  1  0
  9 26  1  0
 10 27  1  0
 11 28  1  0
 12 29  1  0
 15 30  1  0
 16 31  1  0
M  RAD  1  14   3
M  END
$$$$
