
     RDKit          3D

 31 32  0  0  0  0  0  0  0  0999 V2000
    5.4536   -0.2967    0.3779 C   0  0  0  0  0  0  0  0  0  0  0  0
    3.9800   -0.1727    0.1271 C   0  0  0  0  0  0  0  0  0  0  0  0
    3.3280    1.0521    0.3353 C   0  0  0  0  0  0  0  0  0  0  0  0
    1.9616    1.1781    0.0677 C   0  0  0  0  0  0  0  0  0  0  0  0
    1.2343    0.0871   -0.4335 C   0  0  0  0  0  0  0  0  0  0  0  0
   -0.2436    0.2129   -0.6886 C   0  0  0  0  0  0  0  0  0  0  0  0
   -1.0394   -0.1440    0.5705 C   0  0  0  0  0  0  0  0  0  0  0  0
   -2.5213   -0.0143    0.3173 C   0  0  0  0  0  0  0  0  0  0  0  0
   -3.2474   -1.1322   -0.1296 C   0  0  0  0  0  0  0  0  0  0  0  0
   -4.6146   -1.0266   -0.3991 C   0  0  0  0  0  0  0  0  0  0  0  0
   -5.2681    0.1963   -0.2354 C   0  0  0  0  0  0  0  0  0  0  0  0
   -4.5552    1.3184    0.1935 C   0  0  0  0  0  0  0  0  0  0  0  0
   -3.1851    1.2225    0.4658 C   0  0  0  0  0  0  0  0  0  0  0  0
   -2.4770    2.3864    0.8872 N   0  0  0  0  0  1  0  0  0  0  0  0
    1.8881   -1.1369   -0.6452 C   0  0  0  0  0  0  0  0  0  0  0  0
    3.2545   -1.2626   -0.3774 C   0  0  0  0  0  0  0  0  0  0  0  0
    6.0088   -0.0299   -0.5455 H   0  0  0  0  0  0  0  0  0  0  0  0
    5.7697    0.3809    1.1995 H   0  0  0  0  0  0  0  0  0  0  0  0
    5.7153   -1.3359    0.6707 H   0  0  0  0  0  0  0  0  0  0  0  0
    3.8761    1.9084    0.7086 H   0  0  0  0  0  0  0  0  0  0  0  0
    1.4707    2.1263    0.2491 H   0  0  0  0  0  0  0  0  0  0  0  0
   -0.5407   -0.4609   -1.5226 H   0  0  0  0  0  0  0  0  0  0  0  0
   -0.4829    1.2526   -1.0034 H   0  0  0  0  0  0  0  0  0  0  0  0
   -0.7989   -1.1858    0.8787 H   0  0  0  0  0  0  0  0  0  0  0  0
   -0.7360    0.5179    1.4109 H   0  0  0  0  0  0  0  0  0  0  0  0
   -2.7538   -2.0859   -0.2708 H   0  0  0  0  0  0  0  0  0  0  0  0
   -5.1671   -1.8932   -0.7385 H   0  0  0  0  0  0  0  0  0  0  0  0
   -6.3268    0.2761   -0.4460 H   0  0  0  0  0  0  0  0  0  0  0  0
   -5.0680    2.2649    0.3106 H   0  0  0  0  0  0  0  0  0  0  0  0
    1.3400   -1.9929   -1.0193 H   0  0  0  0  0  0  0  0  0  0  0  0
    3.7454   -2.2106   -0.5597 H   0  0  0  0  0  0  0  0  0  0  0  0
  1  2  1  0
  2  3  1  0
  3  4  2  0
  4  5  1  0
  5  6  1  0
  6  7  1  0
  7  8  1  0
  8  9  2  0
  9 10  1  0
 10 11  2  0
 11 12  1  0
 12 13  2  0
 13 14  1  0
  5 15  2  0
 15 16  1  0
 16  2  2  0
 13  8  1  0
  1 17  1  0
  1 18  1  0
  1 19  1  0
  3 20  1  0
  4 21  1  0
  6 22  1  0
  6 23  1  0
  7 24  1  0
  7 25  1  0
  9 26  1  0
 10 27  1  0
 11 28  1  0
 12 29  1  0
 15 30  1  0
 16 31  1  0
M  RAD  1  14   3
M  END
$$$$
