
     RDKit          3D

 31 32  0  0  0  0  0  0  0  0999 V2000
   -3.8646    1.8645    0.5485 C   0  0  0  0  0  0  0  0  0  0  0  0
   -2.8463    0.7697    0.4290 C   0  0  0  0  0  0  0  0  0  0  0  0
   -2.1239    0.6037   -0.7621 C   0  0  0  0  0  0  0  0  0  0  0  0
   -1.1464   -0.3905   -0.8610 C   0  0  0  0  0  0  0  0  0  0  0  0
   -0.8723   -1.2264    0.2334 C   0  0  0  0  0  0  0  0  0  0  0  0
    0.2192   -2.2628    0.1461 C   0  0  0  0  0  0  0  0  0  0  0  0
    1.5331   -1.7598    0.7610 C   0  0  0  0  0  0  0  0  0  0  0  0
    2.0914   -0.5750    0.0064 C   0  0  0  0  0  0  0  0  0  0  0  0
    1.8313    0.7271    0.4699 C   0  0  0  0  0  0  0  0  0  0  0  0
    2.2993    1.8372   -0.2376 C   0  0  0  0  0  0  0  0  0  0  0  0
    3.0279    1.6603   -1.4153 C   0  0  0  0  0  0  0  0  0  0  0  0
    3.2877    0.3727   -1.8904 C   0  0  0  0  0  0  0  0  0  0  0  0
    2.8211   -0.7459   -1.1894 C   0  0  0  0  0  0  0  0  0  0  0  0
    3.0895   -2.0493   -1.7017 N   0  0  0  0  0  1  0  0  0  0  0  0
   -1.5774   -1.0424    1.4329 C   0  0  0  0  0  0  0  0  0  0  0  0
   -2.5561   -0.0490    1.5308 C   0  0  0  0  0  0  0  0  0  0  0  0
   -3.3691    2.7919    0.9041 H   0  0  0  0  0  0  0  0  0  0  0  0
   -4.3433    2.0630   -0.4341 H   0  0  0  0  0  0  0  0  0  0  0  0
   -4.6623    1.5809    1.2677 H   0  0  0  0  0  0  0  0  0  0  0  0
   -2.3141    1.2463   -1.6129 H   0  0  0  0  0  0  0  0  0  0  0  0
   -0.5930   -0.4990   -1.7857 H   0  0  0  0  0  0  0  0  0  0  0  0
    0.3873   -2.5615   -0.9117 H   0  0  0  0  0  0  0  0  0  0  0  0
   -0.1022   -3.1786    0.6882 H   0  0  0  0  0  0  0  0  0  0  0  0
    2.2746   -2.5876    0.7566 H   0  0  0  0  0  0  0  0  0  0  0  0
    1.3673   -1.4966    1.8291 H   0  0  0  0  0  0  0  0  0  0  0  0
    1.2563    0.8827    1.3745 H   0  0  0  0  0  0  0  0  0  0  0  0
    2.0932    2.8357    0.1255 H   0  0  0  0  0  0  0  0  0  0  0  0
    3.3885    2.5217   -1.9625 H   0  0  0  0  0  0  0  0  0  0  0  0
    3.8495    0.2444   -2.8072 H   0  0  0  0  0  0  0  0  0  0  0  0
   -1.3618   -1.6621    2.2945 H   0  0  0  0  0  0  0  0  0  0  0  0
   -3.0842    0.0843    2.4670 H   0  0  0  0  0  0  0  0  0  0  0  0
  1  2  1  0
  2  3  1  0
  3  4  2  0
  4  5  1  0
  5  6  1  0
  6  7  1  0
  7  8  1  0
  8  9  2  0
  9 10  1  0
 10 11  2  0
 11 12  1  0
 12 13  2  0
 13 14  1  0
  5 15  2  0
 15 16  1  0
 16  2  2  0
 13  8  1  0
  1 17  1  0
  1 18  1  0
  1 19  1  0
  3 20  1  0
  4 21  1  0
  6 22  1  0
  6 23  1  0
  7 24  1  0
  7 25  1  0
  9 26  1  0
 10 27  1  0
 11 28  1  0
 12 29  1  0
 15 30  1  0
 16 31  1  0
M  RAD  1  14   3
M  END
$$$$
