
     RDKit          3D

 31 32  0  0  0  0  0  0  0  0999 V2000
   -3.7260    2.1981   -0.0883 C   0  0  0  0  0  0  0  0  0  0  0  0
   -2.7423    1.1048   -0.3821 C   0  0  0  0  0  0  0  0  0  0  0  0
   -1.5453    1.3933   -1.0545 C   0  0  0  0  0  0  0  0  0  0  0  0
   -0.6097    0.3828   -1.2934 C   0  0  0  0  0  0  0  0  0  0  0  0
   -0.8550   -0.9284   -0.8551 C   0  0  0  0  0  0  0  0  0  0  0  0
    0.1772   -2.0073   -1.0638 C   0  0  0  0  0  0  0  0  0  0  0  0
    1.0421   -2.2183    0.1872 C   0  0  0  0  0  0  0  0  0  0  0  0
    1.8578   -0.9904    0.5220 C   0  0  0  0  0  0  0  0  0  0  0  0
    1.3801   -0.0820    1.4836 C   0  0  0  0  0  0  0  0  0  0  0  0
    2.0959    1.0819    1.7751 C   0  0  0  0  0  0  0  0  0  0  0  0
    3.2923    1.3532    1.1088 C   0  0  0  0  0  0  0  0  0  0  0  0
    3.7748    0.4626    0.1469 C   0  0  0  0  0  0  0  0  0  0  0  0
    3.0635   -0.7053   -0.1536 C   0  0  0  0  0  0  0  0  0  0  0  0
    3.5712   -1.5922   -1.1481 N   0  0  0  0  0  1  0  0  0  0  0  0
   -2.0410   -1.2104   -0.1597 C   0  0  0  0  0  0  0  0  0  0  0  0
   -2.9772   -0.1998    0.0776 C   0  0  0  0  0  0  0  0  0  0  0  0
   -3.4756    2.6677    0.8858 H   0  0  0  0  0  0  0  0  0  0  0  0
   -4.7593    1.7931   -0.0406 H   0  0  0  0  0  0  0  0  0  0  0  0
   -3.6980    2.9742   -0.8827 H   0  0  0  0  0  0  0  0  0  0  0  0
   -1.3341    2.4012   -1.3901 H   0  0  0  0  0  0  0  0  0  0  0  0
    0.3125    0.6255   -1.8069 H   0  0  0  0  0  0  0  0  0  0  0  0
    0.8249   -1.7620   -1.9338 H   0  0  0  0  0  0  0  0  0  0  0  0
   -0.3367   -2.9622   -1.3089 H   0  0  0  0  0  0  0  0  0  0  0  0
    0.3925   -2.4987    1.0456 H   0  0  0  0  0  0  0  0  0  0  0  0
    1.7208   -3.0814    0.0162 H   0  0  0  0  0  0  0  0  0  0  0  0
    0.4470   -0.2703    2.0003 H   0  0  0  0  0  0  0  0  0  0  0  0
    1.7201    1.7762    2.5155 H   0  0  0  0  0  0  0  0  0  0  0  0
    3.8446    2.2560    1.3354 H   0  0  0  0  0  0  0  0  0  0  0  0
    4.7011    0.6830   -0.3687 H   0  0  0  0  0  0  0  0  0  0  0  0
   -2.2353   -2.2109    0.2067 H   0  0  0  0  0  0  0  0  0  0  0  0
   -3.8829   -0.4338    0.6234 H   0  0  0  0  0  0  0  0  0  0  0  0
  1  2  1  0
  2  3  1  0
  3  4  2  0
  4  5  1  0
  5  6  1  0
  6  7  1  0
  7  8  1  0
  8  9  2  0
  9 10  1  0
 10 11  2  0
 11 12  1  0
 12 13  2  0
 13 14  1  0
  5 15  2  0
 15 16  1  0
 16  2  2  0
 13  8  1  0
  1 17  1  0
  1 18  1  0
  1 19  1  0
  3 20  1  0
  4 21  1  0
  6 22  1  0
  6 23  1  0
  7 24  1  0
  7 25  1  0
  9 26  1  0
 10 27  1  0
 11 28  1  0
 12 29  1  0
 15 30  1  0
 16 31  1  0
M  RAD  1  14   3
M  END
$$$$
