
     RDKit          3D

 31 32  0  0  0  0  0  0  0  0999 V2000
   -2.5270    1.6681    1.6941 C   0  0  0  0  0  0  0  0  0  0  0  0
   -2.2739    0.4612    0.8333 C   0  0  0  0  0  0  0  0  0  0  0  0
   -2.9256   -0.7495    1.1152 C   0  0  0  0  0  0  0  0  0  0  0  0
   -2.6846   -1.8791    0.3332 C   0  0  0  0  0  0  0  0  0  0  0  0
   -1.7906   -1.8149   -0.7355 C   0  0  0  0  0  0  0  0  0  0  0  0
   -1.1299   -0.6144   -1.0413 C   0  0  0  0  0  0  0  0  0  0  0  0
   -0.1251   -0.5970   -2.1720 C   0  0  0  0  0  0  0  0  0  0  0  0
    1.2314   -1.1714   -1.7386 C   0  0  0  0  0  0  0  0  0  0  0  0
    1.8882   -0.3216   -0.6809 C   0  0  0  0  0  0  0  0  0  0  0  0
    1.7384   -0.6393    0.6800 C   0  0  0  0  0  0  0  0  0  0  0  0
    2.3053    0.1799    1.6608 C   0  0  0  0  0  0  0  0  0  0  0  0
    3.0220    1.3214    1.2915 C   0  0  0  0  0  0  0  0  0  0  0  0
    3.1705    1.6473   -0.0595 C   0  0  0  0  0  0  0  0  0  0  0  0
    2.6032    0.8319   -1.0437 C   0  0  0  0  0  0  0  0  0  0  0  0
   -1.3713    0.5295   -0.2475 C   0  0  0  0  0  0  0  0  0  0  0  0
   -0.6951    1.7559   -0.5279 N   0  0  0  0  0  1  0  0  0  0  0  0
   -3.2915    1.4630    2.4735 H   0  0  0  0  0  0  0  0  0  0  0  0
   -1.5849    1.9699    2.1985 H   0  0  0  0  0  0  0  0  0  0  0  0
   -2.8898    2.5084    1.0654 H   0  0  0  0  0  0  0  0  0  0  0  0
   -3.6190   -0.8223    1.9439 H   0  0  0  0  0  0  0  0  0  0  0  0
   -3.1880   -2.8100    0.5603 H   0  0  0  0  0  0  0  0  0  0  0  0
   -1.6061   -2.7059   -1.3231 H   0  0  0  0  0  0  0  0  0  0  0  0
   -0.5155   -1.2095   -3.0139 H   0  0  0  0  0  0  0  0  0  0  0  0
    0.0109    0.4293   -2.5756 H   0  0  0  0  0  0  0  0  0  0  0  0
    1.0992   -2.2132   -1.3719 H   0  0  0  0  0  0  0  0  0  0  0  0
    1.8965   -1.2290   -2.6276 H   0  0  0  0  0  0  0  0  0  0  0  0
    1.1735   -1.5132    0.9804 H   0  0  0  0  0  0  0  0  0  0  0  0
    2.1850   -0.0677    2.7075 H   0  0  0  0  0  0  0  0  0  0  0  0
    3.4588    1.9554    2.0521 H   0  0  0  0  0  0  0  0  0  0  0  0
    3.7208    2.5347   -0.3439 H   0  0  0  0  0  0  0  0  0  0  0  0
    2.7141    1.1021   -2.0866 H   0  0  0  0  0  0  0  0  0  0  0  0
  1  2  1  0
  2  3  1  0
  3  4  2  0
  4  5  1  0
  5  6  2  0
  6  7  1  0
  7  8  1  0
  8  9  1  0
  9 10  2  0
 10 11  1  0
 11 12  2  0
 12 13  1  0
 13 14  2  0
  6 15  1  0
 15 16  1  0
 15  2  2  0
 14  9  1  0
  1 17  1  0
  1 18  1  0
  1 19  1  0
  3 20  1  0
  4 21  1  0
  5 22  1  0
  7 23  1  0
  7 24  1  0
  8 25  1  0
  8 26  1  0
 10 27  1  0
 11 28  1  0
 12 29  1  0
 13 30  1  0
 14 31  1  0
M  RAD  1  16   3
M  END
$$$$
