
     RDKit          3D

 31 32  0  0  0  0  0  0  0  0999 V2000
    4.0887    1.0524   -0.6300 C   0  0  0  0  0  0  0  0  0  0  0  0
    2.8699    0.5977    0.1245 C   0  0  0  0  0  0  0  0  0  0  0  0
    2.4649    1.2836    1.2803 C   0  0  0  0  0  0  0  0  0  0  0  0
    1.3291    0.8767    1.9806 C   0  0  0  0  0  0  0  0  0  0  0  0
    0.5860   -0.2171    1.5374 C   0  0  0  0  0  0  0  0  0  0  0  0
    0.9730   -0.9219    0.3858 C   0  0  0  0  0  0  0  0  0  0  0  0
    0.1198   -2.0714   -0.1014 C   0  0  0  0  0  0  0  0  0  0  0  0
   -0.8427   -1.6376   -1.2164 C   0  0  0  0  0  0  0  0  0  0  0  0
   -1.8418   -0.6196   -0.7287 C   0  0  0  0  0  0  0  0  0  0  0  0
   -2.9750   -1.0300   -0.0070 C   0  0  0  0  0  0  0  0  0  0  0  0
   -3.8781   -0.0824    0.4845 C   0  0  0  0  0  0  0  0  0  0  0  0
   -3.6529    1.2795    0.2658 C   0  0  0  0  0  0  0  0  0  0  0  0
   -2.5230    1.6964   -0.4433 C   0  0  0  0  0  0  0  0  0  0  0  0
   -1.6183    0.7521   -0.9378 C   0  0  0  0  0  0  0  0  0  0  0  0
    2.1179   -0.5059   -0.3277 C   0  0  0  0  0  0  0  0  0  0  0  0
    2.5147   -1.1984   -1.5120 N   0  0  0  0  0  1  0  0  0  0  0  0
    4.8154    0.2165   -0.7084 H   0  0  0  0  0  0  0  0  0  0  0  0
    4.5920    1.9026   -0.1220 H   0  0  0  0  0  0  0  0  0  0  0  0
    3.7957    1.3781   -1.6502 H   0  0  0  0  0  0  0  0  0  0  0  0
    3.0261    2.1371    1.6399 H   0  0  0  0  0  0  0  0  0  0  0  0
    1.0206    1.4145    2.8679 H   0  0  0  0  0  0  0  0  0  0  0  0
   -0.3005   -0.5087    2.0872 H   0  0  0  0  0  0  0  0  0  0  0  0
   -0.4606   -2.5092    0.7406 H   0  0  0  0  0  0  0  0  0  0  0  0
    0.7730   -2.8852   -0.4835 H   0  0  0  0  0  0  0  0  0  0  0  0
   -0.2663   -1.2339   -2.0774 H   0  0  0  0  0  0  0  0  0  0  0  0
   -1.3856   -2.5333   -1.5892 H   0  0  0  0  0  0  0  0  0  0  0  0
   -3.1545   -2.0818    0.1786 H   0  0  0  0  0  0  0  0  0  0  0  0
   -4.7505   -0.4036    1.0388 H   0  0  0  0  0  0  0  0  0  0  0  0
   -4.3515    2.0118    0.6493 H   0  0  0  0  0  0  0  0  0  0  0  0
   -2.3459    2.7516   -0.6060 H   0  0  0  0  0  0  0  0  0  0  0  0
   -0.7396    1.0895   -1.4737 H   0  0  0  0  0  0  0  0  0  0  0  0
  1  2  1  0
  2  3  1  0
  3  4  2  0
  4  5  1  0
  5  6  2  0
  6  7  1  0
  7  8  1  0
  8  9  1  0
  9 10  2  0
 10 11  1  0
 11 12  2  0
 12 13  1  0
 13 14  2  0
  6 15  1  0
 15 16  1  0
 15  2  2  0
 14  9  1  0
  1 17  1  0
  1 18  1  0
  1 19  1  0
  3 20  1  0
  4 21  1  0
  5 22  1  0
  7 23  1  0
  7 24  1  0
  8 25  1  0
  8 26  1  0
 10 27  1  0
 11 28  1  0
 12 29  1  0
 13 30  1  0
 14 31  1  0
M  RAD  1  16   3
M  END
$$$$
