
     RDKit          3D

 31 32  0  0  0  0  0  0  0  0999 V2000
    2.6622   -0.4246    2.1958 C   0  0  0  0  0  0  0  0  0  0  0  0
    2.3355    0.0316    0.8006 C   0  0  0  0  0  0  0  0  0  0  0  0
    3.0021    1.1377    0.2511 C   0  0  0  0  0  0  0  0  0  0  0  0
    2.6941    1.5791   -1.0357 C   0  0  0  0  0  0  0  0  0  0  0  0
    1.7176    0.9252   -1.7869 C   0  0  0  0  0  0  0  0  0  0  0  0
    1.0400   -0.1868   -1.2619 C   0  0  0  0  0  0  0  0  0  0  0  0
   -0.0521   -0.8358   -2.0832 C   0  0  0  0  0  0  0  0  0  0  0  0
   -1.3721   -0.0563   -1.9945 C   0  0  0  0  0  0  0  0  0  0  0  0
   -1.9381   -0.0686   -0.5976 C   0  0  0  0  0  0  0  0  0  0  0  0
   -2.6747   -1.1749   -0.1426 C   0  0  0  0  0  0  0  0  0  0  0  0
   -3.1576   -1.2079    1.1693 C   0  0  0  0  0  0  0  0  0  0  0  0
   -2.9027   -0.1421    2.0368 C   0  0  0  0  0  0  0  0  0  0  0  0
   -2.1639    0.9585    1.5941 C   0  0  0  0  0  0  0  0  0  0  0  0
   -1.6812    0.9967    0.2825 C   0  0  0  0  0  0  0  0  0  0  0  0
    1.3494   -0.6326    0.0429 C   0  0  0  0  0  0  0  0  0  0  0  0
    0.6585   -1.7492    0.6047 N   0  0  0  0  0  1  0  0  0  0  0  0
    2.9772   -1.4892    2.1788 H   0  0  0  0  0  0  0  0  0  0  0  0
    3.4858    0.1736    2.6407 H   0  0  0  0  0  0  0  0  0  0  0  0
    1.7650   -0.3198    2.8416 H   0  0  0  0  0  0  0  0  0  0  0  0
    3.7594    1.6632    0.8196 H   0  0  0  0  0  0  0  0  0  0  0  0
    3.2098    2.4357   -1.4503 H   0  0  0  0  0  0  0  0  0  0  0  0
    1.4825    1.2907   -2.7790 H   0  0  0  0  0  0  0  0  0  0  0  0
   -0.2154   -1.8911   -1.7759 H   0  0  0  0  0  0  0  0  0  0  0  0
    0.2667   -0.8711   -3.1478 H   0  0  0  0  0  0  0  0  0  0  0  0
   -2.1066   -0.5152   -2.6917 H   0  0  0  0  0  0  0  0  0  0  0  0
   -1.2157    0.9893   -2.3403 H   0  0  0  0  0  0  0  0  0  0  0  0
   -2.8676   -2.0126   -0.8012 H   0  0  0  0  0  0  0  0  0  0  0  0
   -3.7249   -2.0622    1.5151 H   0  0  0  0  0  0  0  0  0  0  0  0
   -3.2742   -0.1708    3.0529 H   0  0  0  0  0  0  0  0  0  0  0  0
   -1.9611    1.7802    2.2687 H   0  0  0  0  0  0  0  0  0  0  0  0
   -1.0979    1.8491   -0.0433 H   0  0  0  0  0  0  0  0  0  0  0  0
  1  2  1  0
  2  3  1  0
  3  4  2  0
  4  5  1  0
  5  6  2  0
  6  7  1  0
  7  8  1  0
  8  9  1  0
  9 10  2  0
 10 11  1  0
 11 12  2  0
 12 13  1  0
 13 14  2  0
  6 15  1  0
 15 16  1  0
 15  2  2  0
 14  9  1  0
  1 17  1  0
  1 18  1  0
  1 19  1  0
  3 20  1  0
  4 21  1  0
  5 22  1  0
  7 23  1  0
  7 24  1  0
  8 25  1  0
  8 26  1  0
 10 27  1  0
 11 28  1  0
 12 29  1  0
 13 30  1  0
 14 31  1  0
M  RAD  1  16   3
M  END
$$$$
