
     RDKit          3D

 31 32  0  0  0  0  0  0  0  0999 V2000
    4.1286    0.8781   -0.6030 C   0  0  0  0  0  0  0  0  0  0  0  0
    2.9069    0.3867    0.1234 C   0  0  0  0  0  0  0  0  0  0  0  0
    2.5909    0.9012    1.3906 C   0  0  0  0  0  0  0  0  0  0  0  0
    1.4536    0.4606    2.0675 C   0  0  0  0  0  0  0  0  0  0  0  0
    0.6202   -0.4970    1.4897 C   0  0  0  0  0  0  0  0  0  0  0  0
    0.9171   -1.0296    0.2244 C   0  0  0  0  0  0  0  0  0  0  0  0
   -0.0315   -2.0277   -0.4008 C   0  0  0  0  0  0  0  0  0  0  0  0
   -0.9980   -1.3581   -1.3883 C   0  0  0  0  0  0  0  0  0  0  0  0
   -1.9055   -0.3701   -0.7004 C   0  0  0  0  0  0  0  0  0  0  0  0
   -3.0397   -0.8180   -0.0031 C   0  0  0  0  0  0  0  0  0  0  0  0
   -3.8563    0.0939    0.6729 C   0  0  0  0  0  0  0  0  0  0  0  0
   -3.5427    1.4558    0.6638 C   0  0  0  0  0  0  0  0  0  0  0  0
   -2.4108    1.9082   -0.0199 C   0  0  0  0  0  0  0  0  0  0  0  0
   -1.5925    1.0001   -0.6984 C   0  0  0  0  0  0  0  0  0  0  0  0
    2.0637   -0.5782   -0.4644 C   0  0  0  0  0  0  0  0  0  0  0  0
    2.3701   -1.0942   -1.7605 N   0  0  0  0  0  1  0  0  0  0  0  0
    4.7077    1.6006    0.0107 H   0  0  0  0  0  0  0  0  0  0  0  0
    4.7911    0.0207   -0.8459 H   0  0  0  0  0  0  0  0  0  0  0  0
    3.8250    1.3827   -1.5442 H   0  0  0  0  0  0  0  0  0  0  0  0
    3.2231    1.6474    1.8559 H   0  0  0  0  0  0  0  0  0  0  0  0
    1.2142    0.8665    3.0419 H   0  0  0  0  0  0  0  0  0  0  0  0
   -0.2656   -0.8159    2.0252 H   0  0  0  0  0  0  0  0  0  0  0  0
   -0.6125   -2.5576    0.3861 H   0  0  0  0  0  0  0  0  0  0  0  0
    0.5491   -2.8093   -0.9364 H   0  0  0  0  0  0  0  0  0  0  0  0
   -1.6153   -2.1448   -1.8740 H   0  0  0  0  0  0  0  0  0  0  0  0
   -0.4240   -0.8583   -2.1990 H   0  0  0  0  0  0  0  0  0  0  0  0
   -3.2869   -1.8722    0.0206 H   0  0  0  0  0  0  0  0  0  0  0  0
   -4.7299   -0.2559    1.2075 H   0  0  0  0  0  0  0  0  0  0  0  0
   -4.1743    2.1599    1.1898 H   0  0  0  0  0  0  0  0  0  0  0  0
   -2.1650    2.9622   -0.0204 H   0  0  0  0  0  0  0  0  0  0  0  0
   -0.7108    1.3624   -1.2127 H   0  0  0  0  0  0  0  0  0  0  0  0
  1  2  1  0
  2  3  1  0
  3  4  2  0
  4  5  1  0
  5  6  2  0
  6  7  1  0
  7  8  1  0
  8  9  1  0
  9 10  2  0
 10 11  1  0
 11 12  2  0
 12 13  1  0
 13 14  2  0
  6 15  1  0
 15 16  1  0
 15  2  2  0
 14  9  1  0
  1 17  1  0
  1 18  1  0
  1 19  1  0
  3 20  1  0
  4 21  1  0
  5 22  1  0
  7 23  1  0
  7 24  1  0
  8 25  1  0
  8 26  1  0
 10 27  1  0
 11 28  1  0
 12 29  1  0
 13 30  1  0
 14 31  1  0
M  RAD  1  16   3
M  END
$$$$
