
     RDKit          3D

 31 32  0  0  0  0  0  0  0  0999 V2000
   -4.6512    0.6299    1.1206 C   0  0  0  0  0  0  0  0  0  0  0  0
   -3.5943    0.1514    0.1636 C   0  0  0  0  0  0  0  0  0  0  0  0
   -3.9471   -0.6783   -0.9124 C   0  0  0  0  0  0  0  0  0  0  0  0
   -2.9719   -1.1394   -1.7971 C   0  0  0  0  0  0  0  0  0  0  0  0
   -1.6364   -0.7763   -1.6211 C   0  0  0  0  0  0  0  0  0  0  0  0
   -1.2606    0.0626   -0.5598 C   0  0  0  0  0  0  0  0  0  0  0  0
    0.1963    0.4112   -0.3736 C   0  0  0  0  0  0  0  0  0  0  0  0
    0.8735   -0.5871    0.5704 C   0  0  0  0  0  0  0  0  0  0  0  0
    2.3244   -0.2354    0.7599 C   0  0  0  0  0  0  0  0  0  0  0  0
    3.2983   -0.7481   -0.1135 C   0  0  0  0  0  0  0  0  0  0  0  0
    4.6419   -0.3938    0.0442 C   0  0  0  0  0  0  0  0  0  0  0  0
    5.0205    0.4806    1.0667 C   0  0  0  0  0  0  0  0  0  0  0  0
    4.0555    1.0057    1.9307 C   0  0  0  0  0  0  0  0  0  0  0  0
    2.7109    0.6541    1.7765 C   0  0  0  0  0  0  0  0  0  0  0  0
   -2.2446    0.5168    0.3454 C   0  0  0  0  0  0  0  0  0  0  0  0
   -1.8753    1.3427    1.4506 N   0  0  0  0  0  1  0  0  0  0  0  0
   -5.6647    0.2949    0.8131 H   0  0  0  0  0  0  0  0  0  0  0  0
   -4.6496    1.7396    1.1575 H   0  0  0  0  0  0  0  0  0  0  0  0
   -4.4434    0.2308    2.1357 H   0  0  0  0  0  0  0  0  0  0  0  0
   -4.9776   -0.9739   -1.0657 H   0  0  0  0  0  0  0  0  0  0  0  0
   -3.2516   -1.7839   -2.6205 H   0  0  0  0  0  0  0  0  0  0  0  0
   -0.8925   -1.1522   -2.3129 H   0  0  0  0  0  0  0  0  0  0  0  0
    0.7159    0.4022   -1.3575 H   0  0  0  0  0  0  0  0  0  0  0  0
    0.2944    1.4422    0.0309 H   0  0  0  0  0  0  0  0  0  0  0  0
    0.7864   -1.6148    0.1531 H   0  0  0  0  0  0  0  0  0  0  0  0
    0.3557   -0.5859    1.5549 H   0  0  0  0  0  0  0  0  0  0  0  0
    3.0166   -1.4191   -0.9156 H   0  0  0  0  0  0  0  0  0  0  0  0
    5.3891   -0.7945   -0.6285 H   0  0  0  0  0  0  0  0  0  0  0  0
    6.0607    0.7548    1.1865 H   0  0  0  0  0  0  0  0  0  0  0  0
    4.3490    1.6881    2.7179 H   0  0  0  0  0  0  0  0  0  0  0  0
    1.9715    1.0753    2.4466 H   0  0  0  0  0  0  0  0  0  0  0  0
  1  2  1  0
  2  3  1  0
  3  4  2  0
  4  5  1  0
  5  6  2  0
  6  7  1  0
  7  8  1  0
  8  9  1  0
  9 10  2  0
 10 11  1  0
 11 12  2  0
 12 13  1  0
 13 14  2  0
  6 15  1  0
 15 16  1  0
 15  2  2  0
 14  9  1  0
  1 17  1  0
  1 18  1  0
  1 19  1  0
  3 20  1  0
  4 21  1  0
  5 22  1  0
  7 23  1  0
  7 24  1  0
  8 25  1  0
  8 26  1  0
 10 27  1  0
 11 28  1  0
 12 29  1  0
 13 30  1  0
 14 31  1  0
M  RAD  1  16   3
M  END
$$$$
