
     RDKit          3D

 31 32  0  0  0  0  0  0  0  0999 V2000
   -2.5053    2.0827    1.1470 C   0  0  0  0  0  0  0  0  0  0  0  0
   -2.2902    0.7783    0.4300 C   0  0  0  0  0  0  0  0  0  0  0  0
   -3.1405    0.4098   -0.6240 C   0  0  0  0  0  0  0  0  0  0  0  0
   -2.9389   -0.7898   -1.3065 C   0  0  0  0  0  0  0  0  0  0  0  0
   -1.8872   -1.6330   -0.9479 C   0  0  0  0  0  0  0  0  0  0  0  0
   -1.0258   -1.2896    0.1063 C   0  0  0  0  0  0  0  0  0  0  0  0
    0.1374   -2.2009    0.4302 C   0  0  0  0  0  0  0  0  0  0  0  0
    1.3150   -1.9865   -0.5317 C   0  0  0  0  0  0  0  0  0  0  0  0
    1.9085   -0.6079   -0.3933 C   0  0  0  0  0  0  0  0  0  0  0  0
    2.8256   -0.3325    0.6346 C   0  0  0  0  0  0  0  0  0  0  0  0
    3.3384    0.9587    0.7934 C   0  0  0  0  0  0  0  0  0  0  0  0
    2.9345    1.9837   -0.0665 C   0  0  0  0  0  0  0  0  0  0  0  0
    2.0165    1.7196   -1.0866 C   0  0  0  0  0  0  0  0  0  0  0  0
    1.5030    0.4296   -1.2504 C   0  0  0  0  0  0  0  0  0  0  0  0
   -1.2277   -0.0729    0.7960 C   0  0  0  0  0  0  0  0  0  0  0  0
   -0.3514    0.3062    1.8583 N   0  0  0  0  0  1  0  0  0  0  0  0
   -1.6220    2.7390    0.9991 H   0  0  0  0  0  0  0  0  0  0  0  0
   -2.6436    1.8960    2.2328 H   0  0  0  0  0  0  0  0  0  0  0  0
   -3.4043    2.6149    0.7694 H   0  0  0  0  0  0  0  0  0  0  0  0
   -3.9594    1.0527   -0.9223 H   0  0  0  0  0  0  0  0  0  0  0  0
   -3.5966   -1.0644   -2.1212 H   0  0  0  0  0  0  0  0  0  0  0  0
   -1.7383   -2.5539   -1.4982 H   0  0  0  0  0  0  0  0  0  0  0  0
   -0.1967   -3.2583    0.3497 H   0  0  0  0  0  0  0  0  0  0  0  0
    0.4772   -2.0647    1.4793 H   0  0  0  0  0  0  0  0  0  0  0  0
    2.0975   -2.7459   -0.3147 H   0  0  0  0  0  0  0  0  0  0  0  0
    0.9827   -2.1622   -1.5786 H   0  0  0  0  0  0  0  0  0  0  0  0
    3.1363   -1.1153    1.3155 H   0  0  0  0  0  0  0  0  0  0  0  0
    4.0450    1.1658    1.5867 H   0  0  0  0  0  0  0  0  0  0  0  0
    3.3298    2.9832    0.0600 H   0  0  0  0  0  0  0  0  0  0  0  0
    1.6991    2.5156   -1.7476 H   0  0  0  0  0  0  0  0  0  0  0  0
    0.7815    0.2418   -2.0360 H   0  0  0  0  0  0  0  0  0  0  0  0
  1  2  1  0
  2  3  1  0
  3  4  2  0
  4  5  1  0
  5  6  2  0
  6  7  1  0
  7  8  1  0
  8  9  1  0
  9 10  2  0
 10 11  1  0
 11 12  2  0
 12 13  1  0
 13 14  2  0
  6 15  1  0
 15 16  1  0
 15  2  2  0
 14  9  1  0
  1 17  1  0
  1 18  1  0
  1 19  1  0
  3 20  1  0
  4 21  1  0
  5 22  1  0
  7 23  1  0
  7 24  1  0
  8 25  1  0
  8 26  1  0
 10 27  1  0
 11 28  1  0
 12 29  1  0
 13 30  1  0
 14 31  1  0
M  RAD  1  16   3
M  END
$$$$
