
     RDKit          3D

 31 32  0  0  0  0  0  0  0  0999 V2000
    4.5160   -1.5570    0.0866 C   0  0  0  0  0  0  0  0  0  0  0  0
    3.5762   -0.3834    0.1247 C   0  0  0  0  0  0  0  0  0  0  0  0
    4.0613    0.9110   -0.1196 C   0  0  0  0  0  0  0  0  0  0  0  0
    3.1950    2.0043   -0.1011 C   0  0  0  0  0  0  0  0  0  0  0  0
    1.8378    1.8200    0.1640 C   0  0  0  0  0  0  0  0  0  0  0  0
    1.3310    0.5366    0.4238 C   0  0  0  0  0  0  0  0  0  0  0  0
   -0.1476    0.3626    0.6736 C   0  0  0  0  0  0  0  0  0  0  0  0
   -0.8842    0.0623   -0.6354 C   0  0  0  0  0  0  0  0  0  0  0  0
   -2.3572   -0.1167   -0.3844 C   0  0  0  0  0  0  0  0  0  0  0  0
   -3.2217    0.9904   -0.4169 C   0  0  0  0  0  0  0  0  0  0  0  0
   -4.5849    0.8271   -0.1509 C   0  0  0  0  0  0  0  0  0  0  0  0
   -5.0918   -0.4382    0.1583 C   0  0  0  0  0  0  0  0  0  0  0  0
   -4.2355   -1.5418    0.2063 C   0  0  0  0  0  0  0  0  0  0  0  0
   -2.8717   -1.3830   -0.0590 C   0  0  0  0  0  0  0  0  0  0  0  0
    2.2043   -0.5725    0.3895 C   0  0  0  0  0  0  0  0  0  0  0  0
    1.6998   -1.8892    0.6172 N   0  0  0  0  0  1  0  0  0  0  0  0
    4.2201   -2.2453   -0.7328 H   0  0  0  0  0  0  0  0  0  0  0  0
    4.4756   -2.1019    1.0533 H   0  0  0  0  0  0  0  0  0  0  0  0
    5.5654   -1.2365   -0.0868 H   0  0  0  0  0  0  0  0  0  0  0  0
    5.1109    1.0758   -0.3299 H   0  0  0  0  0  0  0  0  0  0  0  0
    3.5763    2.9983   -0.2967 H   0  0  0  0  0  0  0  0  0  0  0  0
    1.1794    2.6801    0.1646 H   0  0  0  0  0  0  0  0  0  0  0  0
   -0.5652    1.2873    1.1304 H   0  0  0  0  0  0  0  0  0  0  0  0
   -0.3183   -0.4596    1.4023 H   0  0  0  0  0  0  0  0  0  0  0  0
   -0.7232    0.8954   -1.3549 H   0  0  0  0  0  0  0  0  0  0  0  0
   -0.4682   -0.8592   -1.0993 H   0  0  0  0  0  0  0  0  0  0  0  0
   -2.8398    1.9776   -0.6460 H   0  0  0  0  0  0  0  0  0  0  0  0
   -5.2478    1.6822   -0.1812 H   0  0  0  0  0  0  0  0  0  0  0  0
   -6.1469   -0.5626    0.3652 H   0  0  0  0  0  0  0  0  0  0  0  0
   -4.6280   -2.5199    0.4525 H   0  0  0  0  0  0  0  0  0  0  0  0
   -2.2171   -2.2444   -0.0093 H   0  0  0  0  0  0  0  0  0  0  0  0
  1  2  1  0
  2  3  1  0
  3  4  2  0
  4  5  1  0
  5  6  2  0
  6  7  1  0
  7  8  1  0
  8  9  1  0
  9 10  2  0
 10 11  1  0
 11 12  2  0
 12 13  1  0
 13 14  2  0
  6 15  1  0
 15 16  1  0
 15  2  2  0
 14  9  1  0
  1 17  1  0
  1 18  1  0
  1 19  1  0
  3 20  1  0
  4 21  1  0
  5 22  1  0
  7 23  1  0
  7 24  1  0
  8 25  1  0
  8 26  1  0
 10 27  1  0
 11 28  1  0
 12 29  1  0
 13 30  1  0
 14 31  1  0
M  RAD  1  16   3
M  END
$$$$
