
     RDKit          3D

 31 32  0  0  0  0  0  0  0  0999 V2000
    4.4061   -1.5287   -1.0591 C   0  0  0  0  0  0  0  0  0  0  0  0
    3.5453   -0.4913   -0.3923 C   0  0  0  0  0  0  0  0  0  0  0  0
    4.0976    0.7451   -0.0224 C   0  0  0  0  0  0  0  0  0  0  0  0
    3.3040    1.7195    0.5834 C   0  0  0  0  0  0  0  0  0  0  0  0
    1.9534    1.4713    0.8298 C   0  0  0  0  0  0  0  0  0  0  0  0
    1.3809    0.2377    0.4803 C   0  0  0  0  0  0  0  0  0  0  0  0
   -0.0907    0.0096    0.7273 C   0  0  0  0  0  0  0  0  0  0  0  0
   -0.9116    0.4003   -0.5053 C   0  0  0  0  0  0  0  0  0  0  0  0
   -2.3780    0.1670   -0.2600 C   0  0  0  0  0  0  0  0  0  0  0  0
   -2.9537   -1.0829   -0.5433 C   0  0  0  0  0  0  0  0  0  0  0  0
   -4.3092   -1.3087   -0.2841 C   0  0  0  0  0  0  0  0  0  0  0  0
   -5.0955   -0.2935    0.2677 C   0  0  0  0  0  0  0  0  0  0  0  0
   -4.5267    0.9480    0.5652 C   0  0  0  0  0  0  0  0  0  0  0  0
   -3.1716    1.1780    0.3076 C   0  0  0  0  0  0  0  0  0  0  0  0
    2.1797   -0.7431   -0.1474 C   0  0  0  0  0  0  0  0  0  0  0  0
    1.6059   -1.9904   -0.5410 N   0  0  0  0  0  1  0  0  0  0  0  0
    4.3817   -2.4707   -0.4718 H   0  0  0  0  0  0  0  0  0  0  0  0
    4.0253   -1.7271   -2.0831 H   0  0  0  0  0  0  0  0  0  0  0  0
    5.4631   -1.1961   -1.1368 H   0  0  0  0  0  0  0  0  0  0  0  0
    5.1431    0.9591   -0.2068 H   0  0  0  0  0  0  0  0  0  0  0  0
    3.7364    2.6725    0.8597 H   0  0  0  0  0  0  0  0  0  0  0  0
    1.3514    2.2438    1.2923 H   0  0  0  0  0  0  0  0  0  0  0  0
   -0.2749   -1.0566    0.9835 H   0  0  0  0  0  0  0  0  0  0  0  0
   -0.4250    0.6113    1.6015 H   0  0  0  0  0  0  0  0  0  0  0  0
   -0.5791   -0.1952   -1.3840 H   0  0  0  0  0  0  0  0  0  0  0  0
   -0.7360    1.4719   -0.7475 H   0  0  0  0  0  0  0  0  0  0  0  0
   -2.3529   -1.8808   -0.9622 H   0  0  0  0  0  0  0  0  0  0  0  0
   -4.7492   -2.2720   -0.5078 H   0  0  0  0  0  0  0  0  0  0  0  0
   -6.1442   -0.4704    0.4689 H   0  0  0  0  0  0  0  0  0  0  0  0
   -5.1351    1.7312    0.9988 H   0  0  0  0  0  0  0  0  0  0  0  0
   -2.7407    2.1413    0.5514 H   0  0  0  0  0  0  0  0  0  0  0  0
  1  2  1  0
  2  3  1  0
  3  4  2  0
  4  5  1  0
  5  6  2  0
  6  7  1  0
  7  8  1  0
  8  9  1  0
  9 10  2  0
 10 11  1  0
 11 12  2  0
 12 13  1  0
 13 14  2  0
  6 15  1  0
 15 16  1  0
 15  2  2  0
 14  9  1  0
  1 17  1  0
  1 18  1  0
  1 19  1  0
  3 20  1  0
  4 21  1  0
  5 22  1  0
  7 23  1  0
  7 24  1  0
  8 25  1  0
  8 26  1  0
 10 27  1  0
 11 28  1  0
 12 29  1  0
 13 30  1  0
 14 31  1  0
M  RAD  1  16   3
M  END
$$$$
