
     RDKit          3D

 31 32  0  0  0  0  0  0  0  0999 V2000
   -4.4413    1.5967   -0.7400 C   0  0  0  0  0  0  0  0  0  0  0  0
   -3.5540    0.4533   -0.3312 C   0  0  0  0  0  0  0  0  0  0  0  0
   -4.0654   -0.8536   -0.2986 C   0  0  0  0  0  0  0  0  0  0  0  0
   -3.2465   -1.9229    0.0652 C   0  0  0  0  0  0  0  0  0  0  0  0
   -1.9113   -1.7011    0.4031 C   0  0  0  0  0  0  0  0  0  0  0  0
   -1.3800   -0.4014    0.3900 C   0  0  0  0  0  0  0  0  0  0  0  0
    0.0770   -0.1953    0.7269 C   0  0  0  0  0  0  0  0  0  0  0  0
    0.9350   -0.2366   -0.5412 C   0  0  0  0  0  0  0  0  0  0  0  0
    2.3866   -0.0252   -0.2049 C   0  0  0  0  0  0  0  0  0  0  0  0
    2.9192    1.2737   -0.1496 C   0  0  0  0  0  0  0  0  0  0  0  0
    4.2601    1.4707    0.1952 C   0  0  0  0  0  0  0  0  0  0  0  0
    5.0743    0.3754    0.4962 C   0  0  0  0  0  0  0  0  0  0  0  0
    4.5479   -0.9188    0.4571 C   0  0  0  0  0  0  0  0  0  0  0  0
    3.2076   -1.1203    0.1127 C   0  0  0  0  0  0  0  0  0  0  0  0
   -2.2039    0.6794    0.0067 C   0  0  0  0  0  0  0  0  0  0  0  0
   -1.6709    2.0035   -0.0456 N   0  0  0  0  0  1  0  0  0  0  0  0
   -5.4833    1.2604   -0.9277 H   0  0  0  0  0  0  0  0  0  0  0  0
   -4.4638    2.3610    0.0652 H   0  0  0  0  0  0  0  0  0  0  0  0
   -4.0495    2.0586   -1.6706 H   0  0  0  0  0  0  0  0  0  0  0  0
   -5.0984   -1.0479   -0.5595 H   0  0  0  0  0  0  0  0  0  0  0  0
   -3.6473   -2.9282    0.0816 H   0  0  0  0  0  0  0  0  0  0  0  0
   -1.2889   -2.5453    0.6735 H   0  0  0  0  0  0  0  0  0  0  0  0
    0.2155    0.7775    1.2473 H   0  0  0  0  0  0  0  0  0  0  0  0
    0.4178   -0.9866    1.4311 H   0  0  0  0  0  0  0  0  0  0  0  0
    0.8051   -1.2178   -1.0491 H   0  0  0  0  0  0  0  0  0  0  0  0
    0.5963    0.5498   -1.2513 H   0  0  0  0  0  0  0  0  0  0  0  0
    2.2963    2.1315   -0.3715 H   0  0  0  0  0  0  0  0  0  0  0  0
    4.6670    2.4730    0.2325 H   0  0  0  0  0  0  0  0  0  0  0  0
    6.1115    0.5297    0.7642 H   0  0  0  0  0  0  0  0  0  0  0  0
    5.1777   -1.7658    0.6969 H   0  0  0  0  0  0  0  0  0  0  0  0
    2.8094   -2.1273    0.0952 H   0  0  0  0  0  0  0  0  0  0  0  0
  1  2  1  0
  2  3  1  0
  3  4  2  0
  4  5  1  0
  5  6  2  0
  6  7  1  0
  7  8  1  0
  8  9  1  0
  9 10  2  0
 10 11  1  0
 11 12  2  0
 12 13  1  0
 13 14  2  0
  6 15  1  0
 15 16  1  0
 15  2  2  0
 14  9  1  0
  1 17  1  0
  1 18  1  0
  1 19  1  0
  3 20  1  0
  4 21  1  0
  5 22  1  0
  7 23  1  0
  7 24  1  0
  8 25  1  0
  8 26  1  0
 10 27  1  0
 11 28  1  0
 12 29  1  0
 13 30  1  0
 14 31  1  0
M  RAD  1  16   3
M  END
$$$$
