
     RDKit          3D

 31 33  0  0  0  0  0  0  0  0999 V2000
   -1.4144    2.2943   -2.3643 N   0  0  0  0  0  1  0  0  0  0  0  0
   -1.6626    1.7333   -1.0771 C   0  0  0  0  0  0  0  0  0  0  0  0
   -1.8794    2.5885    0.0100 C   0  0  0  0  0  0  0  0  0  0  0  0
   -2.1045    2.0639    1.2848 C   0  0  0  0  0  0  0  0  0  0  0  0
   -2.1162    0.6816    1.4799 C   0  0  0  0  0  0  0  0  0  0  0  0
   -1.9037   -0.1799    0.4009 C   0  0  0  0  0  0  0  0  0  0  0  0
   -1.6762    0.3348   -0.8880 C   0  0  0  0  0  0  0  0  0  0  0  0
   -1.3796   -0.6135   -2.0268 C   0  0  0  0  0  0  0  0  0  0  0  0
    0.1295   -0.7802   -2.2575 C   0  0  0  0  0  0  0  0  0  0  0  0
    0.8036   -1.4456   -1.0847 C   0  0  0  0  0  0  0  0  0  0  0  0
    0.8015   -2.8329   -0.9174 C   0  0  0  0  0  0  0  0  0  0  0  0
    1.5507   -3.2190    0.5455 S   0  0  0  0  0  0  0  0  0  0  0  0
    1.8766   -1.6331    0.9798 C   0  0  0  0  0  0  0  0  0  0  0  0
    2.4922   -1.1739    2.1414 C   0  0  0  0  0  0  0  0  0  0  0  0
    2.6401    0.2099    2.3114 C   0  0  0  0  0  0  0  0  0  0  0  0
    2.1748    1.0997    1.3258 C   0  0  0  0  0  0  0  0  0  0  0  0
    1.5590    0.6141    0.1606 C   0  0  0  0  0  0  0  0  0  0  0  0
    1.4107   -0.7714   -0.0046 C   0  0  0  0  0  0  0  0  0  0  0  0
   -1.8668    3.6619   -0.1316 H   0  0  0  0  0  0  0  0  0  0  0  0
   -2.2668    2.7295    2.1227 H   0  0  0  0  0  0  0  0  0  0  0  0
   -2.2842    0.2769    2.4695 H   0  0  0  0  0  0  0  0  0  0  0  0
   -1.8991   -1.2492    0.5731 H   0  0  0  0  0  0  0  0  0  0  0  0
   -1.8482   -0.2342   -2.9603 H   0  0  0  0  0  0  0  0  0  0  0  0
   -1.8377   -1.6082   -1.8312 H   0  0  0  0  0  0  0  0  0  0  0  0
    0.5972    0.2008   -2.4814 H   0  0  0  0  0  0  0  0  0  0  0  0
    0.2797   -1.4109   -3.1605 H   0  0  0  0  0  0  0  0  0  0  0  0
    0.3714   -3.5481   -1.6060 H   0  0  0  0  0  0  0  0  0  0  0  0
    2.8424   -1.8653    2.8968 H   0  0  0  0  0  0  0  0  0  0  0  0
    3.1123    0.5953    3.2057 H   0  0  0  0  0  0  0  0  0  0  0  0
    2.2911    2.1664    1.4669 H   0  0  0  0  0  0  0  0  0  0  0  0
    1.2065    1.3142   -0.5832 H   0  0  0  0  0  0  0  0  0  0  0  0
  1  2  1  0
  2  3  2  0
  3  4  1  0
  4  5  2  0
  5  6  1  0
  6  7  2  0
  7  8  1  0
  8  9  1  0
  9 10  1  0
 10 11  2  0
 11 12  1  0
 12 13  1  0
 13 14  2  0
 14 15  1  0
 15 16  2  0
 16 17  1  0
 17 18  2  0
  7  2  1  0
 18 10  1  0
 18 13  1  0
  3 19  1  0
  4 20  1  0
  5 21  1  0
  6 22  1  0
  8 23  1  0
  8 24  1  0
  9 25  1  0
  9 26  1  0
 11 27  1  0
 14 28  1  0
 15 29  1  0
 16 30  1  0
 17 31  1  0
M  RAD  1   1   3
M  END
$$$$
