
     RDKit          3D

 31 33  0  0  0  0  0  0  0  0999 V2000
   -2.5021    0.5022   -2.5025 N   0  0  0  0  0  1  0  0  0  0  0  0
   -3.1243    0.4265   -1.2216 C   0  0  0  0  0  0  0  0  0  0  0  0
   -4.3109    1.1349   -0.9966 C   0  0  0  0  0  0  0  0  0  0  0  0
   -4.9317    1.0897    0.2539 C   0  0  0  0  0  0  0  0  0  0  0  0
   -4.3675    0.3400    1.2878 C   0  0  0  0  0  0  0  0  0  0  0  0
   -3.1835   -0.3706    1.0728 C   0  0  0  0  0  0  0  0  0  0  0  0
   -2.5564   -0.3460   -0.1854 C   0  0  0  0  0  0  0  0  0  0  0  0
   -1.2605   -1.0942   -0.3844 C   0  0  0  0  0  0  0  0  0  0  0  0
   -0.0614   -0.1807   -0.0942 C   0  0  0  0  0  0  0  0  0  0  0  0
    1.2865   -0.8458   -0.2704 C   0  0  0  0  0  0  0  0  0  0  0  0
    1.4853   -2.1824   -0.6493 C   0  0  0  0  0  0  0  0  0  0  0  0
    3.1419   -2.5035   -0.7220 S   0  0  0  0  0  0  0  0  0  0  0  0
    3.6221   -0.9622   -0.2763 C   0  0  0  0  0  0  0  0  0  0  0  0
    4.9193   -0.4790   -0.1228 C   0  0  0  0  0  0  0  0  0  0  0  0
    5.0873    0.8591    0.2621 C   0  0  0  0  0  0  0  0  0  0  0  0
    3.9660    1.6802    0.4842 C   0  0  0  0  0  0  0  0  0  0  0  0
    2.6666    1.1706    0.3231 C   0  0  0  0  0  0  0  0  0  0  0  0
    2.5041   -0.1680   -0.0622 C   0  0  0  0  0  0  0  0  0  0  0  0
   -4.7510    1.7250   -1.7908 H   0  0  0  0  0  0  0  0  0  0  0  0
   -5.8481    1.6403    0.4231 H   0  0  0  0  0  0  0  0  0  0  0  0
   -4.8461    0.3120    2.2582 H   0  0  0  0  0  0  0  0  0  0  0  0
   -2.7542   -0.9393    1.8884 H   0  0  0  0  0  0  0  0  0  0  0  0
   -1.2306   -1.9744    0.2952 H   0  0  0  0  0  0  0  0  0  0  0  0
   -1.2022   -1.4782   -1.4259 H   0  0  0  0  0  0  0  0  0  0  0  0
   -0.1068    0.6993   -0.7720 H   0  0  0  0  0  0  0  0  0  0  0  0
   -0.1352    0.1865    0.9527 H   0  0  0  0  0  0  0  0  0  0  0  0
    0.7154   -2.9098   -0.8654 H   0  0  0  0  0  0  0  0  0  0  0  0
    5.7758   -1.1177   -0.2954 H   0  0  0  0  0  0  0  0  0  0  0  0
    6.0838    1.2618    0.3890 H   0  0  0  0  0  0  0  0  0  0  0  0
    4.1057    2.7115    0.7811 H   0  0  0  0  0  0  0  0  0  0  0  0
    1.8127    1.8122    0.4972 H   0  0  0  0  0  0  0  0  0  0  0  0
  1  2  1  0
  2  3  2  0
  3  4  1  0
  4  5  2  0
  5  6  1  0
  6  7  2  0
  7  8  1  0
  8  9  1  0
  9 10  1  0
 10 11  2  0
 11 12  1  0
 12 13  1  0
 13 14  2  0
 14 15  1  0
 15 16  2  0
 16 17  1  0
 17 18  2  0
  7  2  1  0
 18 10  1  0
 18 13  1  0
  3 19  1  0
  4 20  1  0
  5 21  1  0
  6 22  1  0
  8 23  1  0
  8 24  1  0
  9 25  1  0
  9 26  1  0
 11 27  1  0
 14 28  1  0
 15 29  1  0
 16 30  1  0
 17 31  1  0
M  RAD  1   1   3
M  END
$$$$
