
     RDKit          3D

 31 33  0  0  0  0  0  0  0  0999 V2000
   -1.3936    1.6747    2.8473 N   0  0  0  0  0  1  0  0  0  0  0  0
   -1.6041    1.5035    1.4475 C   0  0  0  0  0  0  0  0  0  0  0  0
   -1.7017    2.6348    0.6284 C   0  0  0  0  0  0  0  0  0  0  0  0
   -1.8875    2.4932   -0.7487 C   0  0  0  0  0  0  0  0  0  0  0  0
   -1.9788    1.2204   -1.3147 C   0  0  0  0  0  0  0  0  0  0  0  0
   -1.8853    0.0856   -0.5052 C   0  0  0  0  0  0  0  0  0  0  0  0
   -1.6986    0.2136    0.8828 C   0  0  0  0  0  0  0  0  0  0  0  0
   -1.5306   -1.0272    1.7291 C   0  0  0  0  0  0  0  0  0  0  0  0
   -0.0513   -1.3684    1.9613 C   0  0  0  0  0  0  0  0  0  0  0  0
    0.6436   -1.7434    0.6772 C   0  0  0  0  0  0  0  0  0  0  0  0
    0.5599   -3.0294    0.1369 C   0  0  0  0  0  0  0  0  0  0  0  0
    1.3646   -3.0639   -1.3470 S   0  0  0  0  0  0  0  0  0  0  0  0
    1.8183   -1.4505   -1.3186 C   0  0  0  0  0  0  0  0  0  0  0  0
    2.5282   -0.7447   -2.2867 C   0  0  0  0  0  0  0  0  0  0  0  0
    2.7761    0.6175   -2.0661 C   0  0  0  0  0  0  0  0  0  0  0  0
    2.3146    1.2419   -0.8928 C   0  0  0  0  0  0  0  0  0  0  0  0
    1.6026    0.5099    0.0715 C   0  0  0  0  0  0  0  0  0  0  0  0
    1.3544   -0.8526   -0.1541 C   0  0  0  0  0  0  0  0  0  0  0  0
   -1.6268    3.6256    1.0586 H   0  0  0  0  0  0  0  0  0  0  0  0
   -1.9575    3.3709   -1.3781 H   0  0  0  0  0  0  0  0  0  0  0  0
   -2.1161    1.1124   -2.3828 H   0  0  0  0  0  0  0  0  0  0  0  0
   -1.9412   -0.8945   -0.9630 H   0  0  0  0  0  0  0  0  0  0  0  0
   -2.0411   -1.8929    1.2520 H   0  0  0  0  0  0  0  0  0  0  0  0
   -2.0259   -0.8784    2.7126 H   0  0  0  0  0  0  0  0  0  0  0  0
    0.4662   -0.5242    2.4621 H   0  0  0  0  0  0  0  0  0  0  0  0
    0.0052   -2.2292    2.6623 H   0  0  0  0  0  0  0  0  0  0  0  0
    0.0451   -3.8677    0.5872 H   0  0  0  0  0  0  0  0  0  0  0  0
    2.8748   -1.2318   -3.1888 H   0  0  0  0  0  0  0  0  0  0  0  0
    3.3230    1.1916   -2.8027 H   0  0  0  0  0  0  0  0  0  0  0  0
    2.5086    2.2945   -0.7324 H   0  0  0  0  0  0  0  0  0  0  0  0
    1.2549    1.0087    0.9648 H   0  0  0  0  0  0  0  0  0  0  0  0
  1  2  1  0
  2  3  2  0
  3  4  1  0
  4  5  2  0
  5  6  1  0
  6  7  2  0
  7  8  1  0
  8  9  1  0
  9 10  1  0
 10 11  2  0
 11 12  1  0
 12 13  1  0
 13 14  2  0
 14 15  1  0
 15 16  2  0
 16 17  1  0
 17 18  2  0
  7  2  1  0
 18 10  1  0
 18 13  1  0
  3 19  1  0
  4 20  1  0
  5 21  1  0
  6 22  1  0
  8 23  1  0
  8 24  1  0
  9 25  1  0
  9 26  1  0
 11 27  1  0
 14 28  1  0
 15 29  1  0
 16 30  1  0
 17 31  1  0
M  RAD  1   1   3
M  END
$$$$
