
     RDKit          3D

 31 33  0  0  0  0  0  0  0  0999 V2000
   -1.6262    2.5428   -1.8943 N   0  0  0  0  0  1  0  0  0  0  0  0
   -1.8008    1.7667   -0.7109 C   0  0  0  0  0  0  0  0  0  0  0  0
   -2.0408    2.4192    0.5042 C   0  0  0  0  0  0  0  0  0  0  0  0
   -2.1950    1.6823    1.6808 C   0  0  0  0  0  0  0  0  0  0  0  0
   -2.1123    0.2892    1.6492 C   0  0  0  0  0  0  0  0  0  0  0  0
   -1.8759   -0.3712    0.4410 C   0  0  0  0  0  0  0  0  0  0  0  0
   -1.7191    0.3583   -0.7512 C   0  0  0  0  0  0  0  0  0  0  0  0
   -1.3950   -0.3721   -2.0339 C   0  0  0  0  0  0  0  0  0  0  0  0
    0.1145   -0.3965   -2.3157 C   0  0  0  0  0  0  0  0  0  0  0  0
    0.8634   -1.1943   -1.2787 C   0  0  0  0  0  0  0  0  0  0  0  0
    0.9553   -2.5874   -1.3388 C   0  0  0  0  0  0  0  0  0  0  0  0
    1.7695   -3.1517    0.0284 S   0  0  0  0  0  0  0  0  0  0  0  0
    2.0051   -1.6378    0.7084 C   0  0  0  0  0  0  0  0  0  0  0  0
    2.6230   -1.3304    1.9179 C   0  0  0  0  0  0  0  0  0  0  0  0
    2.6865    0.0149    2.3075 C   0  0  0  0  0  0  0  0  0  0  0  0
    2.1368    1.0177    1.4880 C   0  0  0  0  0  0  0  0  0  0  0  0
    1.5203    0.6850    0.2706 C   0  0  0  0  0  0  0  0  0  0  0  0
    1.4566   -0.6627   -0.1145 C   0  0  0  0  0  0  0  0  0  0  0  0
   -2.1013    3.4998    0.5385 H   0  0  0  0  0  0  0  0  0  0  0  0
   -2.3756    2.1920    2.6184 H   0  0  0  0  0  0  0  0  0  0  0  0
   -2.2254   -0.2798    2.5629 H   0  0  0  0  0  0  0  0  0  0  0  0
   -1.7977   -1.4514    0.4373 H   0  0  0  0  0  0  0  0  0  0  0  0
   -1.9136    0.1195   -2.8849 H   0  0  0  0  0  0  0  0  0  0  0  0
   -1.7824   -1.4143   -1.9942 H   0  0  0  0  0  0  0  0  0  0  0  0
    0.2789   -0.8621   -3.3116 H   0  0  0  0  0  0  0  0  0  0  0  0
    0.5115    0.6373   -2.3857 H   0  0  0  0  0  0  0  0  0  0  0  0
    0.5525   -3.2101   -2.1266 H   0  0  0  0  0  0  0  0  0  0  0  0
    3.0385   -2.1088    2.5447 H   0  0  0  0  0  0  0  0  0  0  0  0
    3.1584    0.2827    3.2439 H   0  0  0  0  0  0  0  0  0  0  0  0
    2.1882    2.0533    1.7983 H   0  0  0  0  0  0  0  0  0  0  0  0
    1.1023    1.4699   -0.3432 H   0  0  0  0  0  0  0  0  0  0  0  0
  1  2  1  0
  2  3  2  0
  3  4  1  0
  4  5  2  0
  5  6  1  0
  6  7  2  0
  7  8  1  0
  8  9  1  0
  9 10  1  0
 10 11  2  0
 11 12  1  0
 12 13  1  0
 13 14  2  0
 14 15  1  0
 15 16  2  0
 16 17  1  0
 17 18  2  0
  7  2  1  0
 18 10  1  0
 18 13  1  0
  3 19  1  0
  4 20  1  0
  5 21  1  0
  6 22  1  0
  8 23  1  0
  8 24  1  0
  9 25  1  0
  9 26  1  0
 11 27  1  0
 14 28  1  0
 15 29  1  0
 16 30  1  0
 17 31  1  0
M  RAD  1   1   3
M  END
$$$$
