
     RDKit          3D

 31 33  0  0  0  0  0  0  0  0999 V2000
   -2.6394    1.6240    1.5996 N   0  0  0  0  0  1  0  0  0  0  0  0
   -3.1815    0.9158    0.4869 C   0  0  0  0  0  0  0  0  0  0  0  0
   -4.3355    1.4054   -0.1368 C   0  0  0  0  0  0  0  0  0  0  0  0
   -4.8776    0.7389   -1.2382 C   0  0  0  0  0  0  0  0  0  0  0  0
   -4.2665   -0.4181   -1.7252 C   0  0  0  0  0  0  0  0  0  0  0  0
   -3.1145   -0.9146   -1.1093 C   0  0  0  0  0  0  0  0  0  0  0  0
   -2.5671   -0.2621    0.0094 C   0  0  0  0  0  0  0  0  0  0  0  0
   -1.3033   -0.7979    0.6373 C   0  0  0  0  0  0  0  0  0  0  0  0
   -0.0682   -0.1345    0.0120 C   0  0  0  0  0  0  0  0  0  0  0  0
    1.2508   -0.6088    0.5825 C   0  0  0  0  0  0  0  0  0  0  0  0
    1.3955   -1.5792    1.5859 C   0  0  0  0  0  0  0  0  0  0  0  0
    3.0367   -1.8025    1.9166 S   0  0  0  0  0  0  0  0  0  0  0  0
    3.5782   -0.6794    0.7984 C   0  0  0  0  0  0  0  0  0  0  0  0
    4.8930   -0.3206    0.5111 C   0  0  0  0  0  0  0  0  0  0  0  0
    5.1146    0.6524   -0.4742 C   0  0  0  0  0  0  0  0  0  0  0  0
    4.0281    1.2421   -1.1469 C   0  0  0  0  0  0  0  0  0  0  0  0
    2.7101    0.8641   -0.8401 C   0  0  0  0  0  0  0  0  0  0  0  0
    2.4939   -0.1091    0.1461 C   0  0  0  0  0  0  0  0  0  0  0  0
   -4.8113    2.3065    0.2299 H   0  0  0  0  0  0  0  0  0  0  0  0
   -5.7690    1.1224   -1.7176 H   0  0  0  0  0  0  0  0  0  0  0  0
   -4.6837   -0.9292   -2.5833 H   0  0  0  0  0  0  0  0  0  0  0  0
   -2.6476   -1.8079   -1.5059 H   0  0  0  0  0  0  0  0  0  0  0  0
   -1.2505   -1.8988    0.4868 H   0  0  0  0  0  0  0  0  0  0  0  0
   -1.3190   -0.6142    1.7335 H   0  0  0  0  0  0  0  0  0  0  0  0
   -0.0680   -0.3355   -1.0816 H   0  0  0  0  0  0  0  0  0  0  0  0
   -0.1364    0.9653    0.1601 H   0  0  0  0  0  0  0  0  0  0  0  0
    0.5975   -2.1128    2.0830 H   0  0  0  0  0  0  0  0  0  0  0  0
    5.7225   -0.7796    1.0332 H   0  0  0  0  0  0  0  0  0  0  0  0
    6.1259    0.9509   -0.7183 H   0  0  0  0  0  0  0  0  0  0  0  0
    4.2091    1.9921   -1.9059 H   0  0  0  0  0  0  0  0  0  0  0  0
    1.8833    1.3249   -1.3648 H   0  0  0  0  0  0  0  0  0  0  0  0
  1  2  1  0
  2  3  2  0
  3  4  1  0
  4  5  2  0
  5  6  1  0
  6  7  2  0
  7  8  1  0
  8  9  1  0
  9 10  1  0
 10 11  2  0
 11 12  1  0
 12 13  1  0
 13 14  2  0
 14 15  1  0
 15 16  2  0
 16 17  1  0
 17 18  2  0
  7  2  1  0
 18 10  1  0
 18 13  1  0
  3 19  1  0
  4 20  1  0
  5 21  1  0
  6 22  1  0
  8 23  1  0
  8 24  1  0
  9 25  1  0
  9 26  1  0
 11 27  1  0
 14 28  1  0
 15 29  1  0
 16 30  1  0
 17 31  1  0
M  RAD  1   1   3
M  END
$$$$
