
     RDKit          3D

 31 33  0  0  0  0  0  0  0  0999 V2000
   -2.3499   -0.4975   -2.6055 N   0  0  0  0  0  1  0  0  0  0  0  0
   -3.0539   -0.1975   -1.4022 C   0  0  0  0  0  0  0  0  0  0  0  0
   -4.3340   -0.7310   -1.2096 C   0  0  0  0  0  0  0  0  0  0  0  0
   -5.0382   -0.4648   -0.0330 C   0  0  0  0  0  0  0  0  0  0  0  0
   -4.4649    0.3323    0.9596 C   0  0  0  0  0  0  0  0  0  0  0  0
   -3.1879    0.8695    0.7765 C   0  0  0  0  0  0  0  0  0  0  0  0
   -2.4743    0.6220   -0.4095 C   0  0  0  0  0  0  0  0  0  0  0  0
   -1.0830    1.1852   -0.5707 C   0  0  0  0  0  0  0  0  0  0  0  0
   -0.0343    0.1797   -0.0750 C   0  0  0  0  0  0  0  0  0  0  0  0
    1.3961    0.6576   -0.1999 C   0  0  0  0  0  0  0  0  0  0  0  0
    1.7902    1.9070   -0.7031 C   0  0  0  0  0  0  0  0  0  0  0  0
    3.4747    2.0222   -0.6600 S   0  0  0  0  0  0  0  0  0  0  0  0
    3.7213    0.5000   -0.0066 C   0  0  0  0  0  0  0  0  0  0  0  0
    4.9316   -0.1089    0.3158 C   0  0  0  0  0  0  0  0  0  0  0  0
    4.8998   -1.4017    0.8584 C   0  0  0  0  0  0  0  0  0  0  0  0
    3.6702   -2.0543    1.0664 C   0  0  0  0  0  0  0  0  0  0  0  0
    2.4616   -1.4200    0.7334 C   0  0  0  0  0  0  0  0  0  0  0  0
    2.4990   -0.1274    0.1908 C   0  0  0  0  0  0  0  0  0  0  0  0
   -4.7827   -1.3565   -1.9711 H   0  0  0  0  0  0  0  0  0  0  0  0
   -6.0269   -0.8809    0.1116 H   0  0  0  0  0  0  0  0  0  0  0  0
   -5.0091    0.5315    1.8738 H   0  0  0  0  0  0  0  0  0  0  0  0
   -2.7541    1.4778    1.5606 H   0  0  0  0  0  0  0  0  0  0  0  0
   -0.9947    2.1308    0.0085 H   0  0  0  0  0  0  0  0  0  0  0  0
   -0.8972    1.4325   -1.6384 H   0  0  0  0  0  0  0  0  0  0  0  0
   -0.1381   -0.7637   -0.6540 H   0  0  0  0  0  0  0  0  0  0  0  0
   -0.2339   -0.0488    0.9947 H   0  0  0  0  0  0  0  0  0  0  0  0
    1.1369    2.6879   -1.0665 H   0  0  0  0  0  0  0  0  0  0  0  0
    5.8725    0.4006    0.1527 H   0  0  0  0  0  0  0  0  0  0  0  0
    5.8249   -1.8995    1.1185 H   0  0  0  0  0  0  0  0  0  0  0  0
    3.6557   -3.0519    1.4858 H   0  0  0  0  0  0  0  0  0  0  0  0
    1.5228   -1.9325    0.8984 H   0  0  0  0  0  0  0  0  0  0  0  0
  1  2  1  0
  2  3  2  0
  3  4  1  0
  4  5  2  0
  5  6  1  0
  6  7  2  0
  7  8  1  0
  8  9  1  0
  9 10  1  0
 10 11  2  0
 11 12  1  0
 12 13  1  0
 13 14  2  0
 14 15  1  0
 15 16  2  0
 16 17  1  0
 17 18  2  0
  7  2  1  0
 18 10  1  0
 18 13  1  0
  3 19  1  0
  4 20  1  0
  5 21  1  0
  6 22  1  0
  8 23  1  0
  8 24  1  0
  9 25  1  0
  9 26  1  0
 11 27  1  0
 14 28  1  0
 15 29  1  0
 16 30  1  0
 17 31  1  0
M  RAD  1   1   3
M  END
$$$$
