
     RDKit          3D

 31 33  0  0  0  0  0  0  0  0999 V2000
   -0.3638   -0.9677   -3.4330 N   0  0  0  0  0  1  0  0  0  0  0  0
   -0.9945   -0.1730   -2.4310 C   0  0  0  0  0  0  0  0  0  0  0  0
   -1.2580    1.1763   -2.6956 C   0  0  0  0  0  0  0  0  0  0  0  0
   -1.8564    1.9809   -1.7231 C   0  0  0  0  0  0  0  0  0  0  0  0
   -2.1966    1.4409   -0.4815 C   0  0  0  0  0  0  0  0  0  0  0  0
   -1.9402    0.0949   -0.2091 C   0  0  0  0  0  0  0  0  0  0  0  0
   -1.3386   -0.7266   -1.1793 C   0  0  0  0  0  0  0  0  0  0  0  0
   -1.0071   -2.1612   -0.8384 C   0  0  0  0  0  0  0  0  0  0  0  0
    0.4480   -2.3198   -0.3736 C   0  0  0  0  0  0  0  0  0  0  0  0
    0.7004   -1.6007    0.9270 C   0  0  0  0  0  0  0  0  0  0  0  0
    0.3743   -2.1663    2.1626 C   0  0  0  0  0  0  0  0  0  0  0  0
    0.6939   -1.0500    3.3883 S   0  0  0  0  0  0  0  0  0  0  0  0
    1.2404    0.1585    2.3632 C   0  0  0  0  0  0  0  0  0  0  0  0
    1.6729    1.4377    2.7036 C   0  0  0  0  0  0  0  0  0  0  0  0
    2.0648    2.3021    1.6716 C   0  0  0  0  0  0  0  0  0  0  0  0
    2.0178    1.8749    0.3319 C   0  0  0  0  0  0  0  0  0  0  0  0
    1.5805    0.5791    0.0118 C   0  0  0  0  0  0  0  0  0  0  0  0
    1.1869   -0.2821    1.0473 C   0  0  0  0  0  0  0  0  0  0  0  0
   -0.9926    1.6044   -3.6541 H   0  0  0  0  0  0  0  0  0  0  0  0
   -2.0536    3.0246   -1.9310 H   0  0  0  0  0  0  0  0  0  0  0  0
   -2.6542    2.0673    0.2732 H   0  0  0  0  0  0  0  0  0  0  0  0
   -2.1950   -0.3035    0.7653 H   0  0  0  0  0  0  0  0  0  0  0  0
   -1.6929   -2.5394   -0.0483 H   0  0  0  0  0  0  0  0  0  0  0  0
   -1.1744   -2.8048   -1.7287 H   0  0  0  0  0  0  0  0  0  0  0  0
    0.6550   -3.4024   -0.2289 H   0  0  0  0  0  0  0  0  0  0  0  0
    1.1462   -1.9720   -1.1628 H   0  0  0  0  0  0  0  0  0  0  0  0
   -0.0362   -3.1562    2.3116 H   0  0  0  0  0  0  0  0  0  0  0  0
    1.7008    1.7598    3.7364 H   0  0  0  0  0  0  0  0  0  0  0  0
    2.4026    3.3030    1.9065 H   0  0  0  0  0  0  0  0  0  0  0  0
    2.3198    2.5500   -0.4582 H   0  0  0  0  0  0  0  0  0  0  0  0
    1.5498    0.2712   -1.0236 H   0  0  0  0  0  0  0  0  0  0  0  0
  1  2  1  0
  2  3  2  0
  3  4  1  0
  4  5  2  0
  5  6  1  0
  6  7  2  0
  7  8  1  0
  8  9  1  0
  9 10  1  0
 10 11  2  0
 11 12  1  0
 12 13  1  0
 13 14  2  0
 14 15  1  0
 15 16  2  0
 16 17  1  0
 17 18  2  0
  7  2  1  0
 18 10  1  0
 18 13  1  0
  3 19  1  0
  4 20  1  0
  5 21  1  0
  6 22  1  0
  8 23  1  0
  8 24  1  0
  9 25  1  0
  9 26  1  0
 11 27  1  0
 14 28  1  0
 15 29  1  0
 16 30  1  0
 17 31  1  0
M  RAD  1   1   3
M  END
$$$$
