
     RDKit          3D

 31 33  0  0  0  0  0  0  0  0999 V2000
   -1.5809   -1.2703    2.9445 N   0  0  0  0  0  1  0  0  0  0  0  0
   -1.7535   -0.2826    1.9306 C   0  0  0  0  0  0  0  0  0  0  0  0
   -1.9384    1.0539    2.3040 C   0  0  0  0  0  0  0  0  0  0  0  0
   -2.0895    2.0430    1.3293 C   0  0  0  0  0  0  0  0  0  0  0  0
   -2.0586    1.7015   -0.0239 C   0  0  0  0  0  0  0  0  0  0  0  0
   -1.8774    0.3702   -0.4064 C   0  0  0  0  0  0  0  0  0  0  0  0
   -1.7244   -0.6358    0.5645 C   0  0  0  0  0  0  0  0  0  0  0  0
   -1.4601   -2.0582    0.1277 C   0  0  0  0  0  0  0  0  0  0  0  0
    0.0399   -2.3880    0.1212 C   0  0  0  0  0  0  0  0  0  0  0  0
    0.7852   -1.5783   -0.9090 C   0  0  0  0  0  0  0  0  0  0  0  0
    0.8245   -1.9478   -2.2562 C   0  0  0  0  0  0  0  0  0  0  0  0
    1.6521   -0.7667   -3.1341 S   0  0  0  0  0  0  0  0  0  0  0  0
    1.9601    0.2230   -1.8167 C   0  0  0  0  0  0  0  0  0  0  0  0
    2.6196    1.4495   -1.8042 C   0  0  0  0  0  0  0  0  0  0  0  0
    2.7421    2.1245   -0.5815 C   0  0  0  0  0  0  0  0  0  0  0  0
    2.2088    1.5654    0.5943 C   0  0  0  0  0  0  0  0  0  0  0  0
    1.5497    0.3256    0.5588 C   0  0  0  0  0  0  0  0  0  0  0  0
    1.4270   -0.3456   -0.6673 C   0  0  0  0  0  0  0  0  0  0  0  0
   -1.9585    1.3282    3.3513 H   0  0  0  0  0  0  0  0  0  0  0  0
   -2.2274    3.0755    1.6233 H   0  0  0  0  0  0  0  0  0  0  0  0
   -2.1692    2.4701   -0.7779 H   0  0  0  0  0  0  0  0  0  0  0  0
   -1.8389    0.1252   -1.4607 H   0  0  0  0  0  0  0  0  0  0  0  0
   -1.9819   -2.7620    0.8113 H   0  0  0  0  0  0  0  0  0  0  0  0
   -1.8842   -2.2370   -0.8852 H   0  0  0  0  0  0  0  0  0  0  0  0
    0.1617   -3.4670   -0.1165 H   0  0  0  0  0  0  0  0  0  0  0  0
    0.4725   -2.2409    1.1323 H   0  0  0  0  0  0  0  0  0  0  0  0
    0.3792   -2.8399   -2.6761 H   0  0  0  0  0  0  0  0  0  0  0  0
    3.0221    1.8747   -2.7144 H   0  0  0  0  0  0  0  0  0  0  0  0
    3.2472    3.0808   -0.5425 H   0  0  0  0  0  0  0  0  0  0  0  0
    2.3060    2.0949    1.5331 H   0  0  0  0  0  0  0  0  0  0  0  0
    1.1452   -0.0855    1.4726 H   0  0  0  0  0  0  0  0  0  0  0  0
  1  2  1  0
  2  3  2  0
  3  4  1  0
  4  5  2  0
  5  6  1  0
  6  7  2  0
  7  8  1  0
  8  9  1  0
  9 10  1  0
 10 11  2  0
 11 12  1  0
 12 13  1  0
 13 14  2  0
 14 15  1  0
 15 16  2  0
 16 17  1  0
 17 18  2  0
  7  2  1  0
 18 10  1  0
 18 13  1  0
  3 19  1  0
  4 20  1  0
  5 21  1  0
  6 22  1  0
  8 23  1  0
  8 24  1  0
  9 25  1  0
  9 26  1  0
 11 27  1  0
 14 28  1  0
 15 29  1  0
 16 30  1  0
 17 31  1  0
M  RAD  1   1   3
M  END
$$$$
