
     RDKit          3D

 31 33  0  0  0  0  0  0  0  0999 V2000
   -2.3534    1.6583   -2.0222 N   0  0  0  0  0  1  0  0  0  0  0  0
   -3.0253    1.1604   -0.8671 C   0  0  0  0  0  0  0  0  0  0  0  0
   -4.1463    1.8449   -0.3819 C   0  0  0  0  0  0  0  0  0  0  0  0
   -4.8130    1.3866    0.7568 C   0  0  0  0  0  0  0  0  0  0  0  0
   -4.3601    0.2442    1.4196 C   0  0  0  0  0  0  0  0  0  0  0  0
   -3.2424   -0.4459    0.9428 C   0  0  0  0  0  0  0  0  0  0  0  0
   -2.5712   -0.0041   -0.2110 C   0  0  0  0  0  0  0  0  0  0  0  0
   -1.3462   -0.7463   -0.6879 C   0  0  0  0  0  0  0  0  0  0  0  0
   -0.0766   -0.1415   -0.0724 C   0  0  0  0  0  0  0  0  0  0  0  0
    1.2072   -0.8215   -0.4964 C   0  0  0  0  0  0  0  0  0  0  0  0
    1.2911   -1.9226   -1.3624 C   0  0  0  0  0  0  0  0  0  0  0  0
    2.9110   -2.3581   -1.5595 S   0  0  0  0  0  0  0  0  0  0  0  0
    3.5197   -1.1639   -0.5552 C   0  0  0  0  0  0  0  0  0  0  0  0
    4.8507   -0.9116   -0.2319 C   0  0  0  0  0  0  0  0  0  0  0  0
    5.1317    0.1512    0.6388 C   0  0  0  0  0  0  0  0  0  0  0  0
    4.0865    0.9336    1.1646 C   0  0  0  0  0  0  0  0  0  0  0  0
    2.7510    0.6602    0.8242 C   0  0  0  0  0  0  0  0  0  0  0  0
    2.4756   -0.4035   -0.0472 C   0  0  0  0  0  0  0  0  0  0  0  0
   -4.4994    2.7361   -0.8856 H   0  0  0  0  0  0  0  0  0  0  0  0
   -5.6781    1.9202    1.1286 H   0  0  0  0  0  0  0  0  0  0  0  0
   -4.8736   -0.1053    2.3060 H   0  0  0  0  0  0  0  0  0  0  0  0
   -2.8986   -1.3246    1.4745 H   0  0  0  0  0  0  0  0  0  0  0  0
   -1.2874   -0.7047   -1.7972 H   0  0  0  0  0  0  0  0  0  0  0  0
   -1.4248   -1.8180   -0.4005 H   0  0  0  0  0  0  0  0  0  0  0  0
   -0.0135    0.9310   -0.3582 H   0  0  0  0  0  0  0  0  0  0  0  0
   -0.1526   -0.1990    1.0354 H   0  0  0  0  0  0  0  0  0  0  0  0
    0.4636   -2.4286   -1.8397 H   0  0  0  0  0  0  0  0  0  0  0  0
    5.6480   -1.5186   -0.6408 H   0  0  0  0  0  0  0  0  0  0  0  0
    6.1568    0.3704    0.9077 H   0  0  0  0  0  0  0  0  0  0  0  0
    4.3131    1.7516    1.8360 H   0  0  0  0  0  0  0  0  0  0  0  0
    1.9565    1.2690    1.2355 H   0  0  0  0  0  0  0  0  0  0  0  0
  1  2  1  0
  2  3  2  0
  3  4  1  0
  4  5  2  0
  5  6  1  0
  6  7  2  0
  7  8  1  0
  8  9  1  0
  9 10  1  0
 10 11  2  0
 11 12  1  0
 12 13  1  0
 13 14  2  0
 14 15  1  0
 15 16  2  0
 16 17  1  0
 17 18  2  0
  7  2  1  0
 18 10  1  0
 18 13  1  0
  3 19  1  0
  4 20  1  0
  5 21  1  0
  6 22  1  0
  8 23  1  0
  8 24  1  0
  9 25  1  0
  9 26  1  0
 11 27  1  0
 14 28  1  0
 15 29  1  0
 16 30  1  0
 17 31  1  0
M  RAD  1   1   3
M  END
$$$$
