
     RDKit          3D

 31 33  0  0  0  0  0  0  0  0999 V2000
    2.6874    2.0611   -1.0481 N   0  0  0  0  0  1  0  0  0  0  0  0
    3.2025    1.0082   -0.2359 C   0  0  0  0  0  0  0  0  0  0  0  0
    4.3530    1.2368    0.5286 C   0  0  0  0  0  0  0  0  0  0  0  0
    4.8687    0.2268    1.3442 C   0  0  0  0  0  0  0  0  0  0  0  0
    4.2347   -1.0157    1.4038 C   0  0  0  0  0  0  0  0  0  0  0  0
    3.0860   -1.2534    0.6443 C   0  0  0  0  0  0  0  0  0  0  0  0
    2.5650   -0.2506   -0.1924 C   0  0  0  0  0  0  0  0  0  0  0  0
    1.3041   -0.5193   -0.9778 C   0  0  0  0  0  0  0  0  0  0  0  0
    0.0684   -0.0849   -0.1773 C   0  0  0  0  0  0  0  0  0  0  0  0
   -1.2477   -0.3142   -0.8884 C   0  0  0  0  0  0  0  0  0  0  0  0
   -1.3896   -0.8844   -2.1628 C   0  0  0  0  0  0  0  0  0  0  0  0
   -3.0282   -0.9530   -2.5664 S   0  0  0  0  0  0  0  0  0  0  0  0
   -3.5722   -0.2659   -1.1393 C   0  0  0  0  0  0  0  0  0  0  0  0
   -4.8864   -0.0022   -0.7608 C   0  0  0  0  0  0  0  0  0  0  0  0
   -5.1105    0.5831    0.4937 C   0  0  0  0  0  0  0  0  0  0  0  0
   -4.0269    0.8904    1.3376 C   0  0  0  0  0  0  0  0  0  0  0  0
   -2.7094    0.6153    0.9344 C   0  0  0  0  0  0  0  0  0  0  0  0
   -2.4907    0.0302   -0.3211 C   0  0  0  0  0  0  0  0  0  0  0  0
    4.8464    2.2001    0.4941 H   0  0  0  0  0  0  0  0  0  0  0  0
    5.7576    0.4091    1.9343 H   0  0  0  0  0  0  0  0  0  0  0  0
    4.6316   -1.7946    2.0419 H   0  0  0  0  0  0  0  0  0  0  0  0
    2.6011   -2.2197    0.7096 H   0  0  0  0  0  0  0  0  0  0  0  0
    1.2343   -1.6049   -1.2100 H   0  0  0  0  0  0  0  0  0  0  0  0
    1.3396    0.0247   -1.9466 H   0  0  0  0  0  0  0  0  0  0  0  0
    0.1536    0.9985    0.0569 H   0  0  0  0  0  0  0  0  0  0  0  0
    0.0483   -0.6446    0.7833 H   0  0  0  0  0  0  0  0  0  0  0  0
   -0.5911   -1.2321   -2.8032 H   0  0  0  0  0  0  0  0  0  0  0  0
   -5.7136   -0.2422   -1.4162 H   0  0  0  0  0  0  0  0  0  0  0  0
   -6.1214    0.7992    0.8142 H   0  0  0  0  0  0  0  0  0  0  0  0
   -4.2098    1.3419    2.3041 H   0  0  0  0  0  0  0  0  0  0  0  0
   -1.8848    0.8561    1.5927 H   0  0  0  0  0  0  0  0  0  0  0  0
  1  2  1  0
  2  3  2  0
  3  4  1  0
  4  5  2  0
  5  6  1  0
  6  7  2  0
  7  8  1  0
  8  9  1  0
  9 10  1  0
 10 11  2  0
 11 12  1  0
 12 13  1  0
 13 14  2  0
 14 15  1  0
 15 16  2  0
 16 17  1  0
 17 18  2  0
  7  2  1  0
 18 10  1  0
 18 13  1  0
  3 19  1  0
  4 20  1  0
  5 21  1  0
  6 22  1  0
  8 23  1  0
  8 24  1  0
  9 25  1  0
  9 26  1  0
 11 27  1  0
 14 28  1  0
 15 29  1  0
 16 30  1  0
 17 31  1  0
M  RAD  1   1   3
M  END
$$$$
