
     RDKit          3D

 31 33  0  0  0  0  0  0  0  0999 V2000
    2.0788    2.8442    0.6660 N   0  0  0  0  0  1  0  0  0  0  0  0
    2.0479    1.4285    0.8334 C   0  0  0  0  0  0  0  0  0  0  0  0
    2.2328    0.8880    2.1116 C   0  0  0  0  0  0  0  0  0  0  0  0
    2.1867   -0.4946    2.3050 C   0  0  0  0  0  0  0  0  0  0  0  0
    1.9575   -1.3449    1.2217 C   0  0  0  0  0  0  0  0  0  0  0  0
    1.7746   -0.8151   -0.0580 C   0  0  0  0  0  0  0  0  0  0  0  0
    1.8189    0.5749   -0.2670 C   0  0  0  0  0  0  0  0  0  0  0  0
    1.5492    1.1294   -1.6468 C   0  0  0  0  0  0  0  0  0  0  0  0
    0.0822    1.5491   -1.8208 C   0  0  0  0  0  0  0  0  0  0  0  0
   -0.8494    0.3662   -1.7482 C   0  0  0  0  0  0  0  0  0  0  0  0
   -1.0848   -0.4610   -2.8496 C   0  0  0  0  0  0  0  0  0  0  0  0
   -2.0893   -1.7359   -2.3845 S   0  0  0  0  0  0  0  0  0  0  0  0
   -2.2275   -1.2531   -0.7853 C   0  0  0  0  0  0  0  0  0  0  0  0
   -2.9278   -1.8829    0.2406 C   0  0  0  0  0  0  0  0  0  0  0  0
   -2.8846   -1.3127    1.5207 C   0  0  0  0  0  0  0  0  0  0  0  0
   -2.1497   -0.1348    1.7485 C   0  0  0  0  0  0  0  0  0  0  0  0
   -1.4528    0.4849    0.6983 C   0  0  0  0  0  0  0  0  0  0  0  0
   -1.4965   -0.0901   -0.5808 C   0  0  0  0  0  0  0  0  0  0  0  0
    2.4059    1.5406    2.9581 H   0  0  0  0  0  0  0  0  0  0  0  0
    2.3255   -0.9070    3.2960 H   0  0  0  0  0  0  0  0  0  0  0  0
    1.9156   -2.4155    1.3745 H   0  0  0  0  0  0  0  0  0  0  0  0
    1.5809   -1.4881   -0.8842 H   0  0  0  0  0  0  0  0  0  0  0  0
    1.8158    0.3793   -2.4240 H   0  0  0  0  0  0  0  0  0  0  0  0
    2.2014    2.0105   -1.8293 H   0  0  0  0  0  0  0  0  0  0  0  0
   -0.1916    2.3182   -1.0693 H   0  0  0  0  0  0  0  0  0  0  0  0
   -0.0299    2.0314   -2.8160 H   0  0  0  0  0  0  0  0  0  0  0  0
   -0.6739   -0.3198   -3.8405 H   0  0  0  0  0  0  0  0  0  0  0  0
   -3.4861   -2.7917    0.0575 H   0  0  0  0  0  0  0  0  0  0  0  0
   -3.4171   -1.7822    2.3376 H   0  0  0  0  0  0  0  0  0  0  0  0
   -2.1201    0.2966    2.7406 H   0  0  0  0  0  0  0  0  0  0  0  0
   -0.8926    1.3878    0.8946 H   0  0  0  0  0  0  0  0  0  0  0  0
  1  2  1  0
  2  3  2  0
  3  4  1  0
  4  5  2  0
  5  6  1  0
  6  7  2  0
  7  8  1  0
  8  9  1  0
  9 10  1  0
 10 11  2  0
 11 12  1  0
 12 13  1  0
 13 14  2  0
 14 15  1  0
 15 16  2  0
 16 17  1  0
 17 18  2  0
  7  2  1  0
 18 10  1  0
 18 13  1  0
  3 19  1  0
  4 20  1  0
  5 21  1  0
  6 22  1  0
  8 23  1  0
  8 24  1  0
  9 25  1  0
  9 26  1  0
 11 27  1  0
 14 28  1  0
 15 29  1  0
 16 30  1  0
 17 31  1  0
M  RAD  1   1   3
M  END
$$$$
