
     RDKit          3D

 31 33  0  0  0  0  0  0  0  0999 V2000
   -2.6569   -2.3397   -0.1866 N   0  0  0  0  0  1  0  0  0  0  0  0
   -3.1863   -1.0552    0.1351 C   0  0  0  0  0  0  0  0  0  0  0  0
   -4.3303   -0.9704    0.9379 C   0  0  0  0  0  0  0  0  0  0  0  0
   -4.8597    0.2761    1.2802 C   0  0  0  0  0  0  0  0  0  0  0  0
   -4.2458    1.4449    0.8258 C   0  0  0  0  0  0  0  0  0  0  0  0
   -3.1038    1.3705    0.0239 C   0  0  0  0  0  0  0  0  0  0  0  0
   -2.5694    0.1221   -0.3407 C   0  0  0  0  0  0  0  0  0  0  0  0
   -1.3158    0.0669   -1.1799 C   0  0  0  0  0  0  0  0  0  0  0  0
   -0.0703    0.0107   -0.2842 C   0  0  0  0  0  0  0  0  0  0  0  0
    1.2394   -0.0497   -1.0400 C   0  0  0  0  0  0  0  0  0  0  0  0
    1.3676   -0.0421   -2.4375 C   0  0  0  0  0  0  0  0  0  0  0  0
    3.0034   -0.1205   -2.8504 S   0  0  0  0  0  0  0  0  0  0  0  0
    3.5635   -0.1639   -1.2726 C   0  0  0  0  0  0  0  0  0  0  0  0
    4.8831   -0.2341   -0.8327 C   0  0  0  0  0  0  0  0  0  0  0  0
    5.1211   -0.2586    0.5491 C   0  0  0  0  0  0  0  0  0  0  0  0
    4.0455   -0.2127    1.4558 C   0  0  0  0  0  0  0  0  0  0  0  0
    2.7223   -0.1421    0.9886 C   0  0  0  0  0  0  0  0  0  0  0  0
    2.4898   -0.1182   -0.3941 C   0  0  0  0  0  0  0  0  0  0  0  0
   -4.8081   -1.8719    1.3009 H   0  0  0  0  0  0  0  0  0  0  0  0
   -5.7434    0.3362    1.9023 H   0  0  0  0  0  0  0  0  0  0  0  0
   -4.6532    2.4100    1.0981 H   0  0  0  0  0  0  0  0  0  0  0  0
   -2.6345    2.2870   -0.3121 H   0  0  0  0  0  0  0  0  0  0  0  0
   -1.2645    0.9665   -1.8322 H   0  0  0  0  0  0  0  0  0  0  0  0
   -1.3456   -0.8230   -1.8452 H   0  0  0  0  0  0  0  0  0  0  0  0
   -0.0561    0.9115    0.3675 H   0  0  0  0  0  0  0  0  0  0  0  0
   -0.1370   -0.8862    0.3693 H   0  0  0  0  0  0  0  0  0  0  0  0
    0.5612    0.0060   -3.1559 H   0  0  0  0  0  0  0  0  0  0  0  0
    5.7040   -0.2686   -1.5371 H   0  0  0  0  0  0  0  0  0  0  0  0
    6.1364   -0.3128    0.9198 H   0  0  0  0  0  0  0  0  0  0  0  0
    4.2391   -0.2319    2.5204 H   0  0  0  0  0  0  0  0  0  0  0  0
    1.9041   -0.1071    1.6960 H   0  0  0  0  0  0  0  0  0  0  0  0
  1  2  1  0
  2  3  2  0
  3  4  1  0
  4  5  2  0
  5  6  1  0
  6  7  2  0
  7  8  1  0
  8  9  1  0
  9 10  1  0
 10 11  2  0
 11 12  1  0
 12 13  1  0
 13 14  2  0
 14 15  1  0
 15 16  2  0
 16 17  1  0
 17 18  2  0
  7  2  1  0
 18 10  1  0
 18 13  1  0
  3 19  1  0
  4 20  1  0
  5 21  1  0
  6 22  1  0
  8 23  1  0
  8 24  1  0
  9 25  1  0
  9 26  1  0
 11 27  1  0
 14 28  1  0
 15 29  1  0
 16 30  1  0
 17 31  1  0
M  RAD  1   1   3
M  END
$$$$
