
     RDKit          3D

 31 33  0  0  0  0  0  0  0  0999 V2000
   -0.9389   -0.7623    3.4314 N   0  0  0  0  0  1  0  0  0  0  0  0
   -1.3045    0.0808    2.3412 C   0  0  0  0  0  0  0  0  0  0  0  0
   -1.3798    1.4641    2.5433 C   0  0  0  0  0  0  0  0  0  0  0  0
   -1.7160    2.3130    1.4862 C   0  0  0  0  0  0  0  0  0  0  0  0
   -1.9808    1.7841    0.2217 C   0  0  0  0  0  0  0  0  0  0  0  0
   -1.9108    0.4048    0.0109 C   0  0  0  0  0  0  0  0  0  0  0  0
   -1.5740   -0.4615    1.0664 C   0  0  0  0  0  0  0  0  0  0  0  0
   -1.4362   -1.9425    0.7990 C   0  0  0  0  0  0  0  0  0  0  0  0
    0.0212   -2.3447    0.5295 C   0  0  0  0  0  0  0  0  0  0  0  0
    0.5455   -1.7258   -0.7412 C   0  0  0  0  0  0  0  0  0  0  0  0
    0.2898   -2.2820   -1.9974 C   0  0  0  0  0  0  0  0  0  0  0  0
    0.9340   -1.2787   -3.1928 S   0  0  0  0  0  0  0  0  0  0  0  0
    1.5347   -0.1308   -2.1291 C   0  0  0  0  0  0  0  0  0  0  0  0
    2.2052    1.0507   -2.4353 C   0  0  0  0  0  0  0  0  0  0  0  0
    2.5984    1.8835   -1.3781 C   0  0  0  0  0  0  0  0  0  0  0  0
    2.3171    1.5222   -0.0478 C   0  0  0  0  0  0  0  0  0  0  0  0
    1.6417    0.3243    0.2380 C   0  0  0  0  0  0  0  0  0  0  0  0
    1.2477   -0.5051   -0.8229 C   0  0  0  0  0  0  0  0  0  0  0  0
   -1.1710    1.8832    3.5196 H   0  0  0  0  0  0  0  0  0  0  0  0
   -1.7682    3.3821    1.6467 H   0  0  0  0  0  0  0  0  0  0  0  0
   -2.2346    2.4438   -0.5978 H   0  0  0  0  0  0  0  0  0  0  0  0
   -2.1026    0.0128   -0.9804 H   0  0  0  0  0  0  0  0  0  0  0  0
   -2.0698   -2.2401   -0.0657 H   0  0  0  0  0  0  0  0  0  0  0  0
   -1.8139   -2.5164    1.6724 H   0  0  0  0  0  0  0  0  0  0  0  0
    0.6621   -2.0791    1.3955 H   0  0  0  0  0  0  0  0  0  0  0  0
    0.0688   -3.4511    0.4337 H   0  0  0  0  0  0  0  0  0  0  0  0
   -0.2519   -3.2008   -2.1791 H   0  0  0  0  0  0  0  0  0  0  0  0
    2.4127    1.3233   -3.4619 H   0  0  0  0  0  0  0  0  0  0  0  0
    3.1186    2.8093   -1.5867 H   0  0  0  0  0  0  0  0  0  0  0  0
    2.6223    2.1727    0.7616 H   0  0  0  0  0  0  0  0  0  0  0  0
    1.4334    0.0662    1.2664 H   0  0  0  0  0  0  0  0  0  0  0  0
  1  2  1  0
  2  3  2  0
  3  4  1  0
  4  5  2  0
  5  6  1  0
  6  7  2  0
  7  8  1  0
  8  9  1  0
  9 10  1  0
 10 11  2  0
 11 12  1  0
 12 13  1  0
 13 14  2  0
 14 15  1  0
 15 16  2  0
 16 17  1  0
 17 18  2  0
  7  2  1  0
 18 10  1  0
 18 13  1  0
  3 19  1  0
  4 20  1  0
  5 21  1  0
  6 22  1  0
  8 23  1  0
  8 24  1  0
  9 25  1  0
  9 26  1  0
 11 27  1  0
 14 28  1  0
 15 29  1  0
 16 30  1  0
 17 31  1  0
M  RAD  1   1   3
M  END
$$$$
