
     RDKit          3D

 31 33  0  0  0  0  0  0  0  0999 V2000
   -2.1915   -1.9649    2.0393 N   0  0  0  0  0  1  0  0  0  0  0  0
   -2.1525   -0.7365    1.3163 C   0  0  0  0  0  0  0  0  0  0  0  0
   -2.4646    0.4562    1.9796 C   0  0  0  0  0  0  0  0  0  0  0  0
   -2.4139    1.6748    1.2988 C   0  0  0  0  0  0  0  0  0  0  0  0
   -2.0529    1.7080   -0.0493 C   0  0  0  0  0  0  0  0  0  0  0  0
   -1.7423    0.5228   -0.7206 C   0  0  0  0  0  0  0  0  0  0  0  0
   -1.7897   -0.7111   -0.0473 C   0  0  0  0  0  0  0  0  0  0  0  0
   -1.3825   -1.9720   -0.7742 C   0  0  0  0  0  0  0  0  0  0  0  0
    0.0866   -2.3362   -0.5141 C   0  0  0  0  0  0  0  0  0  0  0  0
    1.0268   -1.3044   -1.0830 C   0  0  0  0  0  0  0  0  0  0  0  0
    1.3955   -1.3002   -2.4310 C   0  0  0  0  0  0  0  0  0  0  0  0
    2.3674    0.0457   -2.7387 S   0  0  0  0  0  0  0  0  0  0  0  0
    2.3225    0.6353   -1.1702 C   0  0  0  0  0  0  0  0  0  0  0  0
    2.9192    1.7916   -0.6739 C   0  0  0  0  0  0  0  0  0  0  0  0
    2.7269    2.1096    0.6780 C   0  0  0  0  0  0  0  0  0  0  0  0
    1.9498    1.2732    1.5002 C   0  0  0  0  0  0  0  0  0  0  0  0
    1.3593    0.1104    0.9789 C   0  0  0  0  0  0  0  0  0  0  0  0
    1.5521   -0.2031   -0.3751 C   0  0  0  0  0  0  0  0  0  0  0  0
   -2.7406    0.4400    3.0266 H   0  0  0  0  0  0  0  0  0  0  0  0
   -2.6515    2.5945    1.8175 H   0  0  0  0  0  0  0  0  0  0  0  0
   -2.0077    2.6537   -0.5736 H   0  0  0  0  0  0  0  0  0  0  0  0
   -1.4477    0.5684   -1.7618 H   0  0  0  0  0  0  0  0  0  0  0  0
   -1.5492   -1.8589   -1.8683 H   0  0  0  0  0  0  0  0  0  0  0  0
   -2.0274   -2.8161   -0.4477 H   0  0  0  0  0  0  0  0  0  0  0  0
    0.2969   -3.3154   -0.9965 H   0  0  0  0  0  0  0  0  0  0  0  0
    0.2630   -2.4797    0.5720 H   0  0  0  0  0  0  0  0  0  0  0  0
    1.0919   -2.0322   -3.1676 H   0  0  0  0  0  0  0  0  0  0  0  0
    3.5110    2.4320   -1.3149 H   0  0  0  0  0  0  0  0  0  0  0  0
    3.1764    3.0036    1.0901 H   0  0  0  0  0  0  0  0  0  0  0  0
    1.8048    1.5282    2.5419 H   0  0  0  0  0  0  0  0  0  0  0  0
    0.7643   -0.5175    1.6266 H   0  0  0  0  0  0  0  0  0  0  0  0
  1  2  1  0
  2  3  2  0
  3  4  1  0
  4  5  2  0
  5  6  1  0
  6  7  2  0
  7  8  1  0
  8  9  1  0
  9 10  1  0
 10 11  2  0
 11 12  1  0
 12 13  1  0
 13 14  2  0
 14 15  1  0
 15 16  2  0
 16 17  1  0
 17 18  2  0
  7  2  1  0
 18 10  1  0
 18 13  1  0
  3 19  1  0
  4 20  1  0
  5 21  1  0
  6 22  1  0
  8 23  1  0
  8 24  1  0
  9 25  1  0
  9 26  1  0
 11 27  1  0
 14 28  1  0
 15 29  1  0
 16 30  1  0
 17 31  1  0
M  RAD  1   1   3
M  END
$$$$
