
     RDKit          3D

 31 33  0  0  0  0  0  0  0  0999 V2000
   -1.5170   -2.2573   -2.4023 N   0  0  0  0  0  1  0  0  0  0  0  0
   -1.7590   -1.0187   -1.7387 C   0  0  0  0  0  0  0  0  0  0  0  0
   -2.0729    0.1137   -2.4998 C   0  0  0  0  0  0  0  0  0  0  0  0
   -2.2942    1.3431   -1.8749 C   0  0  0  0  0  0  0  0  0  0  0  0
   -2.2051    1.4473   -0.4857 C   0  0  0  0  0  0  0  0  0  0  0  0
   -1.8951    0.3225    0.2826 C   0  0  0  0  0  0  0  0  0  0  0  0
   -1.6702   -0.9216   -0.3335 C   0  0  0  0  0  0  0  0  0  0  0  0
   -1.2680   -2.1088    0.5107 C   0  0  0  0  0  0  0  0  0  0  0  0
    0.2557   -2.2977    0.5478 C   0  0  0  0  0  0  0  0  0  0  0  0
    0.9442   -1.1482    1.2384 C   0  0  0  0  0  0  0  0  0  0  0  0
    1.0443   -1.0718    2.6302 C   0  0  0  0  0  0  0  0  0  0  0  0
    1.7777    0.3879    3.0569 S   0  0  0  0  0  0  0  0  0  0  0  0
    1.9673    0.9355    1.4840 C   0  0  0  0  0  0  0  0  0  0  0  0
    2.5113    2.1451    1.0594 C   0  0  0  0  0  0  0  0  0  0  0  0
    2.5469    2.4098   -0.3170 C   0  0  0  0  0  0  0  0  0  0  0  0
    2.0435    1.4688   -1.2338 C   0  0  0  0  0  0  0  0  0  0  0  0
    1.5015    0.2539   -0.7832 C   0  0  0  0  0  0  0  0  0  0  0  0
    1.4655   -0.0061    0.5951 C   0  0  0  0  0  0  0  0  0  0  0  0
   -2.1389    0.0427   -3.5783 H   0  0  0  0  0  0  0  0  0  0  0  0
   -2.5319    2.2165   -2.4684 H   0  0  0  0  0  0  0  0  0  0  0  0
   -2.3704    2.4021   -0.0036 H   0  0  0  0  0  0  0  0  0  0  0  0
   -1.8132    0.4248    1.3578 H   0  0  0  0  0  0  0  0  0  0  0  0
   -1.7368   -3.0312    0.1055 H   0  0  0  0  0  0  0  0  0  0  0  0
   -1.6536   -1.9943    1.5480 H   0  0  0  0  0  0  0  0  0  0  0  0
    0.4805   -3.2341    1.1030 H   0  0  0  0  0  0  0  0  0  0  0  0
    0.6526   -2.4410   -0.4784 H   0  0  0  0  0  0  0  0  0  0  0  0
    0.6911   -1.8199    3.3274 H   0  0  0  0  0  0  0  0  0  0  0  0
    2.8914    2.8655    1.7720 H   0  0  0  0  0  0  0  0  0  0  0  0
    2.9615    3.3430   -0.6754 H   0  0  0  0  0  0  0  0  0  0  0  0
    2.0730    1.6830   -2.2943 H   0  0  0  0  0  0  0  0  0  0  0  0
    1.1182   -0.4545   -1.5036 H   0  0  0  0  0  0  0  0  0  0  0  0
  1  2  1  0
  2  3  2  0
  3  4  1  0
  4  5  2  0
  5  6  1  0
  6  7  2  0
  7  8  1  0
  8  9  1  0
  9 10  1  0
 10 11  2  0
 11 12  1  0
 12 13  1  0
 13 14  2  0
 14 15  1  0
 15 16  2  0
 16 17  1  0
 17 18  2  0
  7  2  1  0
 18 10  1  0
 18 13  1  0
  3 19  1  0
  4 20  1  0
  5 21  1  0
  6 22  1  0
  8 23  1  0
  8 24  1  0
  9 25  1  0
  9 26  1  0
 11 27  1  0
 14 28  1  0
 15 29  1  0
 16 30  1  0
 17 31  1  0
M  RAD  1   1   3
M  END
$$$$
