
     RDKit          3D

 31 33  0  0  0  0  0  0  0  0999 V2000
   -2.0856   -1.8361   -2.2655 N   0  0  0  0  0  1  0  0  0  0  0  0
   -2.0580   -0.6217   -1.5188 C   0  0  0  0  0  0  0  0  0  0  0  0
   -2.2607    0.5934   -2.1839 C   0  0  0  0  0  0  0  0  0  0  0  0
   -2.2182    1.7982   -1.4783 C   0  0  0  0  0  0  0  0  0  0  0  0
   -1.9750    1.7950   -0.1037 C   0  0  0  0  0  0  0  0  0  0  0  0
   -1.7742    0.5874    0.5694 C   0  0  0  0  0  0  0  0  0  0  0  0
   -1.8147   -0.6329   -0.1287 C   0  0  0  0  0  0  0  0  0  0  0  0
   -1.5259   -1.9213    0.6067 C   0  0  0  0  0  0  0  0  0  0  0  0
   -0.0564   -2.3452    0.4677 C   0  0  0  0  0  0  0  0  0  0  0  0
    0.8734   -1.3641    1.1351 C   0  0  0  0  0  0  0  0  0  0  0  0
    1.1231   -1.3964    2.5097 C   0  0  0  0  0  0  0  0  0  0  0  0
    2.1203   -0.0990    2.9255 S   0  0  0  0  0  0  0  0  0  0  0  0
    2.2371    0.5157    1.3704 C   0  0  0  0  0  0  0  0  0  0  0  0
    2.9229    1.6523    0.9494 C   0  0  0  0  0  0  0  0  0  0  0  0
    2.8628    1.9988   -0.4078 C   0  0  0  0  0  0  0  0  0  0  0  0
    2.1257    1.2096   -1.3097 C   0  0  0  0  0  0  0  0  0  0  0  0
    1.4435    0.0659   -0.8633 C   0  0  0  0  0  0  0  0  0  0  0  0
    1.5042   -0.2762    0.4961 C   0  0  0  0  0  0  0  0  0  0  0  0
   -2.4448    0.6052   -3.2509 H   0  0  0  0  0  0  0  0  0  0  0  0
   -2.3708    2.7351   -1.9981 H   0  0  0  0  0  0  0  0  0  0  0  0
   -1.9358    2.7298    0.4404 H   0  0  0  0  0  0  0  0  0  0  0  0
   -1.5698    0.6043    1.6329 H   0  0  0  0  0  0  0  0  0  0  0  0
   -2.1749   -2.7313    0.2098 H   0  0  0  0  0  0  0  0  0  0  0  0
   -1.7824   -1.8176    1.6842 H   0  0  0  0  0  0  0  0  0  0  0  0
    0.2078   -2.4798   -0.6016 H   0  0  0  0  0  0  0  0  0  0  0  0
    0.0696   -3.3398    0.9478 H   0  0  0  0  0  0  0  0  0  0  0  0
    0.7259   -2.1255    3.2033 H   0  0  0  0  0  0  0  0  0  0  0  0
    3.4831    2.2565    1.6511 H   0  0  0  0  0  0  0  0  0  0  0  0
    3.3838    2.8785   -0.7626 H   0  0  0  0  0  0  0  0  0  0  0  0
    2.0829    1.4864   -2.3550 H   0  0  0  0  0  0  0  0  0  0  0  0
    0.8813   -0.5255   -1.5717 H   0  0  0  0  0  0  0  0  0  0  0  0
  1  2  1  0
  2  3  2  0
  3  4  1  0
  4  5  2  0
  5  6  1  0
  6  7  2  0
  7  8  1  0
  8  9  1  0
  9 10  1  0
 10 11  2  0
 11 12  1  0
 12 13  1  0
 13 14  2  0
 14 15  1  0
 15 16  2  0
 16 17  1  0
 17 18  2  0
  7  2  1  0
 18 10  1  0
 18 13  1  0
  3 19  1  0
  4 20  1  0
  5 21  1  0
  6 22  1  0
  8 23  1  0
  8 24  1  0
  9 25  1  0
  9 26  1  0
 11 27  1  0
 14 28  1  0
 15 29  1  0
 16 30  1  0
 17 31  1  0
M  RAD  1   1   3
M  END
$$$$
