
     RDKit          3D

 31 33  0  0  0  0  0  0  0  0999 V2000
   -1.9987    2.3750   -1.7940 N   0  0  0  0  0  1  0  0  0  0  0  0
   -2.0315    1.5502   -0.6313 C   0  0  0  0  0  0  0  0  0  0  0  0
   -2.3036    2.1334    0.6120 C   0  0  0  0  0  0  0  0  0  0  0  0
   -2.3213    1.3503    1.7685 C   0  0  0  0  0  0  0  0  0  0  0  0
   -2.0692   -0.0204    1.6886 C   0  0  0  0  0  0  0  0  0  0  0  0
   -1.7995   -0.6120    0.4521 C   0  0  0  0  0  0  0  0  0  0  0  0
   -1.7789    0.1646   -0.7203 C   0  0  0  0  0  0  0  0  0  0  0  0
   -1.4164   -0.4836   -2.0365 C   0  0  0  0  0  0  0  0  0  0  0  0
    0.0728   -0.3127   -2.3704 C   0  0  0  0  0  0  0  0  0  0  0  0
    0.9529   -1.0403   -1.3863 C   0  0  0  0  0  0  0  0  0  0  0  0
    1.2130   -2.4091   -1.4950 C   0  0  0  0  0  0  0  0  0  0  0  0
    2.1417   -2.9063   -0.1756 S   0  0  0  0  0  0  0  0  0  0  0  0
    2.2150   -1.3947    0.5451 C   0  0  0  0  0  0  0  0  0  0  0  0
    2.8360   -1.0473    1.7422 C   0  0  0  0  0  0  0  0  0  0  0  0
    2.7484    0.2840    2.1731 C   0  0  0  0  0  0  0  0  0  0  0  0
    2.0489    1.2336    1.4060 C   0  0  0  0  0  0  0  0  0  0  0  0
    1.4322    0.8614    0.2002 C   0  0  0  0  0  0  0  0  0  0  0  0
    1.5201   -0.4724   -0.2263 C   0  0  0  0  0  0  0  0  0  0  0  0
   -2.4951    3.1968    0.6836 H   0  0  0  0  0  0  0  0  0  0  0  0
   -2.5274    1.8070    2.7278 H   0  0  0  0  0  0  0  0  0  0  0  0
   -2.0768   -0.6246    2.5865 H   0  0  0  0  0  0  0  0  0  0  0  0
   -1.5893   -1.6737    0.4104 H   0  0  0  0  0  0  0  0  0  0  0  0
   -1.6710   -1.5665   -2.0176 H   0  0  0  0  0  0  0  0  0  0  0  0
   -2.0235   -0.0364   -2.8528 H   0  0  0  0  0  0  0  0  0  0  0  0
    0.3368    0.7639   -2.4202 H   0  0  0  0  0  0  0  0  0  0  0  0
    0.2553   -0.7260   -3.3860 H   0  0  0  0  0  0  0  0  0  0  0  0
    0.8601   -3.0545   -2.2884 H   0  0  0  0  0  0  0  0  0  0  0  0
    3.3675   -1.7855    2.3286 H   0  0  0  0  0  0  0  0  0  0  0  0
    3.2190    0.5818    3.1010 H   0  0  0  0  0  0  0  0  0  0  0  0
    1.9845    2.2584    1.7480 H   0  0  0  0  0  0  0  0  0  0  0  0
    0.8979    1.6055   -0.3730 H   0  0  0  0  0  0  0  0  0  0  0  0
  1  2  1  0
  2  3  2  0
  3  4  1  0
  4  5  2  0
  5  6  1  0
  6  7  2  0
  7  8  1  0
  8  9  1  0
  9 10  1  0
 10 11  2  0
 11 12  1  0
 12 13  1  0
 13 14  2  0
 14 15  1  0
 15 16  2  0
 16 17  1  0
 17 18  2  0
  7  2  1  0
 18 10  1  0
 18 13  1  0
  3 19  1  0
  4 20  1  0
  5 21  1  0
  6 22  1  0
  8 23  1  0
  8 24  1  0
  9 25  1  0
  9 26  1  0
 11 27  1  0
 14 28  1  0
 15 29  1  0
 16 30  1  0
 17 31  1  0
M  RAD  1   1   3
M  END
$$$$
