
     RDKit          3D

 31 32  0  0  0  0  0  0  0  0999 V2000
    2.2744    1.6157    0.9217 C   0  0  0  0  0  0  0  0  0  0  0  0
    2.5978    0.3189    0.2242 C   0  0  0  0  0  0  0  0  0  0  0  0
    3.9148   -0.1686    0.2841 C   0  0  0  0  0  0  0  0  0  0  0  0
    4.2619   -1.3598   -0.3512 C   0  0  0  0  0  0  0  0  0  0  0  0
    3.3024   -2.0813   -1.0570 C   0  0  0  0  0  0  0  0  0  0  0  0
    1.9882   -1.6139   -1.1412 C   0  0  0  0  0  0  0  0  0  0  0  0
    1.0305   -2.3856   -1.8641 N   0  0  0  0  0  1  0  0  0  0  0  0
    1.6199   -0.3993   -0.5168 C   0  0  0  0  0  0  0  0  0  0  0  0
    0.1832    0.0794   -0.6021 C   0  0  0  0  0  0  0  0  0  0  0  0
   -0.6675   -0.5570    0.5025 C   0  0  0  0  0  0  0  0  0  0  0  0
   -2.0800   -0.0416    0.4452 C   0  0  0  0  0  0  0  0  0  0  0  0
   -2.4361    1.1262    1.1405 C   0  0  0  0  0  0  0  0  0  0  0  0
   -3.7405    1.6236    1.0594 C   0  0  0  0  0  0  0  0  0  0  0  0
   -4.6938    0.9656    0.2772 C   0  0  0  0  0  0  0  0  0  0  0  0
   -4.3431   -0.1886   -0.4288 C   0  0  0  0  0  0  0  0  0  0  0  0
   -3.0397   -0.6893   -0.3505 C   0  0  0  0  0  0  0  0  0  0  0  0
    3.1091    1.9484    1.5749 H   0  0  0  0  0  0  0  0  0  0  0  0
    1.3780    1.4970    1.5644 H   0  0  0  0  0  0  0  0  0  0  0  0
    2.0885    2.4088    0.1677 H   0  0  0  0  0  0  0  0  0  0  0  0
    4.6788    0.3732    0.8280 H   0  0  0  0  0  0  0  0  0  0  0  0
    5.2787   -1.7266   -0.2933 H   0  0  0  0  0  0  0  0  0  0  0  0
    3.5815   -3.0092   -1.5405 H   0  0  0  0  0  0  0  0  0  0  0  0
   -0.2457   -0.1781   -1.5950 H   0  0  0  0  0  0  0  0  0  0  0  0
    0.1280    1.1860   -0.5323 H   0  0  0  0  0  0  0  0  0  0  0  0
   -0.2274   -0.3328    1.4986 H   0  0  0  0  0  0  0  0  0  0  0  0
   -0.6659   -1.6632    0.3873 H   0  0  0  0  0  0  0  0  0  0  0  0
   -1.7038    1.6507    1.7420 H   0  0  0  0  0  0  0  0  0  0  0  0
   -4.0114    2.5212    1.6001 H   0  0  0  0  0  0  0  0  0  0  0  0
   -5.7026    1.3526    0.2144 H   0  0  0  0  0  0  0  0  0  0  0  0
   -5.0803   -0.6933   -1.0397 H   0  0  0  0  0  0  0  0  0  0  0  0
   -2.7779   -1.5789   -0.9100 H   0  0  0  0  0  0  0  0  0  0  0  0
  1  2  1  0
  2  3  2  0
  3  4  1  0
  4  5  2  0
  5  6  1  0
  6  7  1  0
  6  8  2  0
  8  9  1  0
  9 10  1  0
 10 11  1  0
 11 12  2  0
 12 13  1  0
 13 14  2  0
 14 15  1  0
 15 16  2  0
  8  2  1  0
 16 11  1  0
  1 17  1  0
  1 18  1  0
  1 19  1  0
  3 20  1  0
  4 21  1  0
  5 22  1  0
  9 23  1  0
  9 24  1  0
 10 25  1  0
 10 26  1  0
 12 27  1  0
 13 28  1  0
 14 29  1  0
 15 30  1  0
 16 31  1  0
M  RAD  1   7   3
M  END
$$$$
