
     RDKit          3D

 31 32  0  0  0  0  0  0  0  0999 V2000
   -1.7615   -1.2659   -1.9069 C   0  0  0  0  0  0  0  0  0  0  0  0
   -2.4325   -0.5477   -0.7637 C   0  0  0  0  0  0  0  0  0  0  0  0
   -3.8159   -0.3098   -0.8361 C   0  0  0  0  0  0  0  0  0  0  0  0
   -4.4802    0.3447    0.1999 C   0  0  0  0  0  0  0  0  0  0  0  0
   -3.7762    0.7697    1.3237 C   0  0  0  0  0  0  0  0  0  0  0  0
   -2.4022    0.5368    1.4260 C   0  0  0  0  0  0  0  0  0  0  0  0
   -1.7129    0.9962    2.5875 N   0  0  0  0  0  1  0  0  0  0  0  0
   -1.7129   -0.1397    0.3926 C   0  0  0  0  0  0  0  0  0  0  0  0
   -0.2176   -0.3635    0.5133 C   0  0  0  0  0  0  0  0  0  0  0  0
    0.5567    0.8585    0.0073 C   0  0  0  0  0  0  0  0  0  0  0  0
    2.0394    0.6131    0.0823 C   0  0  0  0  0  0  0  0  0  0  0  0
    2.7528    0.9309    1.2502 C   0  0  0  0  0  0  0  0  0  0  0  0
    4.1244    0.6705    1.3299 C   0  0  0  0  0  0  0  0  0  0  0  0
    4.7899    0.0830    0.2503 C   0  0  0  0  0  0  0  0  0  0  0  0
    4.0840   -0.2492   -0.9093 C   0  0  0  0  0  0  0  0  0  0  0  0
    2.7123    0.0095   -0.9933 C   0  0  0  0  0  0  0  0  0  0  0  0
   -1.4646   -2.2856   -1.5841 H   0  0  0  0  0  0  0  0  0  0  0  0
   -2.4382   -1.3637   -2.7824 H   0  0  0  0  0  0  0  0  0  0  0  0
   -0.8641   -0.7067   -2.2426 H   0  0  0  0  0  0  0  0  0  0  0  0
   -4.3855   -0.6291   -1.7002 H   0  0  0  0  0  0  0  0  0  0  0  0
   -5.5451    0.5258    0.1295 H   0  0  0  0  0  0  0  0  0  0  0  0
   -4.3012    1.2838    2.1193 H   0  0  0  0  0  0  0  0  0  0  0  0
    0.0536   -0.5612    1.5733 H   0  0  0  0  0  0  0  0  0  0  0  0
    0.0955   -1.2689   -0.0475 H   0  0  0  0  0  0  0  0  0  0  0  0
    0.2918    1.7499    0.6173 H   0  0  0  0  0  0  0  0  0  0  0  0
    0.2675    1.0845   -1.0421 H   0  0  0  0  0  0  0  0  0  0  0  0
    2.2468    1.3776    2.0972 H   0  0  0  0  0  0  0  0  0  0  0  0
    4.6708    0.9210    2.2300 H   0  0  0  0  0  0  0  0  0  0  0  0
    5.8513   -0.1192    0.3142 H   0  0  0  0  0  0  0  0  0  0  0  0
    4.5990   -0.7106   -1.7420 H   0  0  0  0  0  0  0  0  0  0  0  0
    2.1745   -0.2617   -1.8934 H   0  0  0  0  0  0  0  0  0  0  0  0
  1  2  1  0
  2  3  2  0
  3  4  1  0
  4  5  2  0
  5  6  1  0
  6  7  1  0
  6  8  2  0
  8  9  1  0
  9 10  1  0
 10 11  1  0
 11 12  2  0
 12 13  1  0
 13 14  2  0
 14 15  1  0
 15 16  2  0
  8  2  1  0
 16 11  1  0
  1 17  1  0
  1 18  1  0
  1 19  1  0
  3 20  1  0
  4 21  1  0
  5 22  1  0
  9 23  1  0
  9 24  1  0
 10 25  1  0
 10 26  1  0
 12 27  1  0
 13 28  1  0
 14 29  1  0
 15 30  1  0
 16 31  1  0
M  RAD  1   7   3
M  END
$$$$
