
     RDKit          3D

 31 32  0  0  0  0  0  0  0  0999 V2000
   -2.6326   -1.7441    1.1765 C   0  0  0  0  0  0  0  0  0  0  0  0
   -2.3046   -0.6625    0.1779 C   0  0  0  0  0  0  0  0  0  0  0  0
   -3.0971   -0.5538   -0.9779 C   0  0  0  0  0  0  0  0  0  0  0  0
   -2.8634    0.4560   -1.9090 C   0  0  0  0  0  0  0  0  0  0  0  0
   -1.8458    1.3815   -1.6955 C   0  0  0  0  0  0  0  0  0  0  0  0
   -1.0479    1.3032   -0.5514 C   0  0  0  0  0  0  0  0  0  0  0  0
   -0.0252    2.2800   -0.3653 N   0  0  0  0  0  1  0  0  0  0  0  0
   -1.2596    0.2766    0.4007 C   0  0  0  0  0  0  0  0  0  0  0  0
   -0.3490    0.1722    1.6141 C   0  0  0  0  0  0  0  0  0  0  0  0
    0.8371   -0.7769    1.3748 C   0  0  0  0  0  0  0  0  0  0  0  0
    1.7967   -0.2397    0.3448 C   0  0  0  0  0  0  0  0  0  0  0  0
    2.7642    0.7123    0.7073 C   0  0  0  0  0  0  0  0  0  0  0  0
    3.6301    1.2382   -0.2565 C   0  0  0  0  0  0  0  0  0  0  0  0
    3.5328    0.8225   -1.5873 C   0  0  0  0  0  0  0  0  0  0  0  0
    2.5686   -0.1192   -1.9570 C   0  0  0  0  0  0  0  0  0  0  0  0
    1.7018   -0.6488   -0.9964 C   0  0  0  0  0  0  0  0  0  0  0  0
   -1.7325   -2.3434    1.4164 H   0  0  0  0  0  0  0  0  0  0  0  0
   -3.4003   -2.4447    0.7844 H   0  0  0  0  0  0  0  0  0  0  0  0
   -3.0307   -1.2855    2.1056 H   0  0  0  0  0  0  0  0  0  0  0  0
   -3.9045   -1.2523   -1.1606 H   0  0  0  0  0  0  0  0  0  0  0  0
   -3.4795    0.5262   -2.7962 H   0  0  0  0  0  0  0  0  0  0  0  0
   -1.6778    2.1664   -2.4225 H   0  0  0  0  0  0  0  0  0  0  0  0
   -0.9229   -0.1877    2.4932 H   0  0  0  0  0  0  0  0  0  0  0  0
    0.0308    1.1732    1.9118 H   0  0  0  0  0  0  0  0  0  0  0  0
    1.3780   -0.9191    2.3357 H   0  0  0  0  0  0  0  0  0  0  0  0
    0.4736   -1.7801    1.0679 H   0  0  0  0  0  0  0  0  0  0  0  0
    2.8425    1.0501    1.7333 H   0  0  0  0  0  0  0  0  0  0  0  0
    4.3740    1.9712    0.0277 H   0  0  0  0  0  0  0  0  0  0  0  0
    4.2021    1.2326   -2.3324 H   0  0  0  0  0  0  0  0  0  0  0  0
    2.4902   -0.4359   -2.9890 H   0  0  0  0  0  0  0  0  0  0  0  0
    0.9510   -1.3686   -1.2987 H   0  0  0  0  0  0  0  0  0  0  0  0
  1  2  1  0
  2  3  2  0
  3  4  1  0
  4  5  2  0
  5  6  1  0
  6  7  1  0
  6  8  2  0
  8  9  1  0
  9 10  1  0
 10 11  1  0
 11 12  2  0
 12 13  1  0
 13 14  2  0
 14 15  1  0
 15 16  2  0
  8  2  1  0
 16 11  1  0
  1 17  1  0
  1 18  1  0
  1 19  1  0
  3 20  1  0
  4 21  1  0
  5 22  1  0
  9 23  1  0
  9 24  1  0
 10 25  1  0
 10 26  1  0
 12 27  1  0
 13 28  1  0
 14 29  1  0
 15 30  1  0
 16 31  1  0
M  RAD  1   7   3
M  END
$$$$
