
     RDKit          3D

 31 32  0  0  0  0  0  0  0  0999 V2000
   -0.9880   -0.7258    1.7750 C   0  0  0  0  0  0  0  0  0  0  0  0
   -1.6349   -0.3448    0.4678 C   0  0  0  0  0  0  0  0  0  0  0  0
   -2.5447   -1.2436   -0.1159 C   0  0  0  0  0  0  0  0  0  0  0  0
   -3.1944   -0.9265   -1.3070 C   0  0  0  0  0  0  0  0  0  0  0  0
   -2.9551    0.2951   -1.9297 C   0  0  0  0  0  0  0  0  0  0  0  0
   -2.0579    1.2087   -1.3712 C   0  0  0  0  0  0  0  0  0  0  0  0
   -1.8489    2.4547   -2.0336 N   0  0  0  0  0  1  0  0  0  0  0  0
   -1.3778    0.9020   -0.1686 C   0  0  0  0  0  0  0  0  0  0  0  0
   -0.3694    1.8951    0.3888 C   0  0  0  0  0  0  0  0  0  0  0  0
    0.9492    1.8939   -0.4023 C   0  0  0  0  0  0  0  0  0  0  0  0
    1.7022    0.5988   -0.2449 C   0  0  0  0  0  0  0  0  0  0  0  0
    1.4841   -0.4624   -1.1400 C   0  0  0  0  0  0  0  0  0  0  0  0
    2.1503   -1.6790   -0.9652 C   0  0  0  0  0  0  0  0  0  0  0  0
    3.0363   -1.8454    0.1027 C   0  0  0  0  0  0  0  0  0  0  0  0
    3.2560   -0.7960    0.9992 C   0  0  0  0  0  0  0  0  0  0  0  0
    2.5902    0.4219    0.8296 C   0  0  0  0  0  0  0  0  0  0  0  0
   -1.2683   -1.7537    2.0892 H   0  0  0  0  0  0  0  0  0  0  0  0
    0.1152   -0.6982    1.6827 H   0  0  0  0  0  0  0  0  0  0  0  0
   -1.3139   -0.0263    2.5729 H   0  0  0  0  0  0  0  0  0  0  0  0
   -2.7573   -2.1962    0.3535 H   0  0  0  0  0  0  0  0  0  0  0  0
   -3.8919   -1.6285   -1.7455 H   0  0  0  0  0  0  0  0  0  0  0  0
   -3.4711    0.5340   -2.8514 H   0  0  0  0  0  0  0  0  0  0  0  0
   -0.8069    2.9157    0.3430 H   0  0  0  0  0  0  0  0  0  0  0  0
   -0.1550    1.7195    1.4626 H   0  0  0  0  0  0  0  0  0  0  0  0
    1.5815    2.7337   -0.0401 H   0  0  0  0  0  0  0  0  0  0  0  0
    0.7546    2.0916   -1.4783 H   0  0  0  0  0  0  0  0  0  0  0  0
    0.7919   -0.3503   -1.9654 H   0  0  0  0  0  0  0  0  0  0  0  0
    1.9769   -2.4941   -1.6558 H   0  0  0  0  0  0  0  0  0  0  0  0
    3.5500   -2.7885    0.2374 H   0  0  0  0  0  0  0  0  0  0  0  0
    3.9383   -0.9280    1.8288 H   0  0  0  0  0  0  0  0  0  0  0  0
    2.7588    1.2226    1.5389 H   0  0  0  0  0  0  0  0  0  0  0  0
  1  2  1  0
  2  3  2  0
  3  4  1  0
  4  5  2  0
  5  6  1  0
  6  7  1  0
  6  8  2  0
  8  9  1  0
  9 10  1  0
 10 11  1  0
 11 12  2  0
 12 13  1  0
 13 14  2  0
 14 15  1  0
 15 16  2  0
  8  2  1  0
 16 11  1  0
  1 17  1  0
  1 18  1  0
  1 19  1  0
  3 20  1  0
  4 21  1  0
  5 22  1  0
  9 23  1  0
  9 24  1  0
 10 25  1  0
 10 26  1  0
 12 27  1  0
 13 28  1  0
 14 29  1  0
 15 30  1  0
 16 31  1  0
M  RAD  1   7   3
M  END
$$$$
