
     RDKit          3D

 31 32  0  0  0  0  0  0  0  0999 V2000
   -2.9834   -1.6454   -0.1804 C   0  0  0  0  0  0  0  0  0  0  0  0
   -2.3990   -0.2790    0.0762 C   0  0  0  0  0  0  0  0  0  0  0  0
   -3.0641    0.5781    0.9700 C   0  0  0  0  0  0  0  0  0  0  0  0
   -2.5898    1.8666    1.2069 C   0  0  0  0  0  0  0  0  0  0  0  0
   -1.4539    2.3257    0.5462 C   0  0  0  0  0  0  0  0  0  0  0  0
   -0.7775    1.4989   -0.3542 C   0  0  0  0  0  0  0  0  0  0  0  0
    0.3742    2.0139   -1.0198 N   0  0  0  0  0  1  0  0  0  0  0  0
   -1.2346    0.1812   -0.5992 C   0  0  0  0  0  0  0  0  0  0  0  0
   -0.4575   -0.7251   -1.5411 C   0  0  0  0  0  0  0  0  0  0  0  0
    0.5703   -1.5957   -0.7990 C   0  0  0  0  0  0  0  0  0  0  0  0
    1.6875   -0.7765   -0.2066 C   0  0  0  0  0  0  0  0  0  0  0  0
    2.7663   -0.3666   -1.0079 C   0  0  0  0  0  0  0  0  0  0  0  0
    3.7842    0.4248   -0.4669 C   0  0  0  0  0  0  0  0  0  0  0  0
    3.7296    0.8167    0.8736 C   0  0  0  0  0  0  0  0  0  0  0  0
    2.6565    0.4185    1.6754 C   0  0  0  0  0  0  0  0  0  0  0  0
    1.6373   -0.3742    1.1391 C   0  0  0  0  0  0  0  0  0  0  0  0
   -3.3753   -1.6946   -1.2177 H   0  0  0  0  0  0  0  0  0  0  0  0
   -3.8217   -1.8695    0.5133 H   0  0  0  0  0  0  0  0  0  0  0  0
   -2.2182   -2.4333   -0.0367 H   0  0  0  0  0  0  0  0  0  0  0  0
   -3.9583    0.2505    1.4859 H   0  0  0  0  0  0  0  0  0  0  0  0
   -3.1102    2.5151    1.9000 H   0  0  0  0  0  0  0  0  0  0  0  0
   -1.0984    3.3314    0.7329 H   0  0  0  0  0  0  0  0  0  0  0  0
   -1.1539   -1.3882   -2.0950 H   0  0  0  0  0  0  0  0  0  0  0  0
    0.0572   -0.1317   -2.3271 H   0  0  0  0  0  0  0  0  0  0  0  0
    0.9987   -2.3291   -1.5164 H   0  0  0  0  0  0  0  0  0  0  0  0
    0.0720   -2.1889   -0.0037 H   0  0  0  0  0  0  0  0  0  0  0  0
    2.8145   -0.6550   -2.0507 H   0  0  0  0  0  0  0  0  0  0  0  0
    4.6133    0.7380   -1.0881 H   0  0  0  0  0  0  0  0  0  0  0  0
    4.5171    1.4315    1.2900 H   0  0  0  0  0  0  0  0  0  0  0  0
    2.6122    0.7274    2.7117 H   0  0  0  0  0  0  0  0  0  0  0  0
    0.8050   -0.6654    1.7681 H   0  0  0  0  0  0  0  0  0  0  0  0
  1  2  1  0
  2  3  2  0
  3  4  1  0
  4  5  2  0
  5  6  1  0
  6  7  1  0
  6  8  2  0
  8  9  1  0
  9 10  1  0
 10 11  1  0
 11 12  2  0
 12 13  1  0
 13 14  2  0
 14 15  1  0
 15 16  2  0
  8  2  1  0
 16 11  1  0
  1 17  1  0
  1 18  1  0
  1 19  1  0
  3 20  1  0
  4 21  1  0
  5 22  1  0
  9 23  1  0
  9 24  1  0
 10 25  1  0
 10 26  1  0
 12 27  1  0
 13 28  1  0
 14 29  1  0
 15 30  1  0
 16 31  1  0
M  RAD  1   7   3
M  END
$$$$
