
     RDKit          3D

 31 32  0  0  0  0  0  0  0  0999 V2000
    1.8816    2.2282   -0.0395 C   0  0  0  0  0  0  0  0  0  0  0  0
    2.4813    0.8464    0.0213 C   0  0  0  0  0  0  0  0  0  0  0  0
    3.8428    0.7161    0.3453 C   0  0  0  0  0  0  0  0  0  0  0  0
    4.4422   -0.5408    0.4068 C   0  0  0  0  0  0  0  0  0  0  0  0
    3.6943   -1.6858    0.1444 C   0  0  0  0  0  0  0  0  0  0  0  0
    2.3414   -1.5841   -0.1903 C   0  0  0  0  0  0  0  0  0  0  0  0
    1.6050   -2.7798   -0.4420 N   0  0  0  0  0  1  0  0  0  0  0  0
    1.7188   -0.3168   -0.2735 C   0  0  0  0  0  0  0  0  0  0  0  0
    0.2441   -0.2295   -0.6173 C   0  0  0  0  0  0  0  0  0  0  0  0
   -0.6168   -0.3884    0.6407 C   0  0  0  0  0  0  0  0  0  0  0  0
   -2.0767   -0.2515    0.3028 C   0  0  0  0  0  0  0  0  0  0  0  0
   -2.6882    1.0134    0.3048 C   0  0  0  0  0  0  0  0  0  0  0  0
   -4.0365    1.1440   -0.0423 C   0  0  0  0  0  0  0  0  0  0  0  0
   -4.7796    0.0164   -0.4026 C   0  0  0  0  0  0  0  0  0  0  0  0
   -4.1743   -1.2433   -0.4207 C   0  0  0  0  0  0  0  0  0  0  0  0
   -2.8262   -1.3784   -0.0744 C   0  0  0  0  0  0  0  0  0  0  0  0
    0.9474    2.2718    0.5573 H   0  0  0  0  0  0  0  0  0  0  0  0
    2.5739    2.9934    0.3717 H   0  0  0  0  0  0  0  0  0  0  0  0
    1.6610    2.4933   -1.0946 H   0  0  0  0  0  0  0  0  0  0  0  0
    4.4456    1.5912    0.5552 H   0  0  0  0  0  0  0  0  0  0  0  0
    5.4905   -0.6276    0.6621 H   0  0  0  0  0  0  0  0  0  0  0  0
    4.1684   -2.6577    0.2023 H   0  0  0  0  0  0  0  0  0  0  0  0
    0.0088    0.7330   -1.1179 H   0  0  0  0  0  0  0  0  0  0  0  0
   -0.0232   -1.0203   -1.3517 H   0  0  0  0  0  0  0  0  0  0  0  0
   -0.3338    0.3779    1.3948 H   0  0  0  0  0  0  0  0  0  0  0  0
   -0.4291   -1.3833    1.1009 H   0  0  0  0  0  0  0  0  0  0  0  0
   -2.1204    1.8961    0.5724 H   0  0  0  0  0  0  0  0  0  0  0  0
   -4.5043    2.1200   -0.0354 H   0  0  0  0  0  0  0  0  0  0  0  0
   -5.8227    0.1194   -0.6722 H   0  0  0  0  0  0  0  0  0  0  0  0
   -4.7490   -2.1148   -0.7066 H   0  0  0  0  0  0  0  0  0  0  0  0
   -2.3663   -2.3586   -0.1018 H   0  0  0  0  0  0  0  0  0  0  0  0
  1  2  1  0
  2  3  2  0
  3  4  1  0
  4  5  2  0
  5  6  1  0
  6  7  1  0
  6  8  2  0
  8  9  1  0
  9 10  1  0
 10 11  1  0
 11 12  2  0
 12 13  1  0
 13 14  2  0
 14 15  1  0
 15 16  2  0
  8  2  1  0
 16 11  1  0
  1 17  1  0
  1 18  1  0
  1 19  1  0
  3 20  1  0
  4 21  1  0
  5 22  1  0
  9 23  1  0
  9 24  1  0
 10 25  1  0
 10 26  1  0
 12 27  1  0
 13 28  1  0
 14 29  1  0
 15 30  1  0
 16 31  1  0
M  RAD  1   7   3
M  END
$$$$
