
     RDKit          3D

 31 32  0  0  0  0  0  0  0  0999 V2000
   -2.4663   -2.1679   -1.0075 C   0  0  0  0  0  0  0  0  0  0  0  0
   -2.2362   -0.7241   -0.6373 C   0  0  0  0  0  0  0  0  0  0  0  0
   -3.0351    0.2598   -1.2452 C   0  0  0  0  0  0  0  0  0  0  0  0
   -2.8925    1.6032   -0.9042 C   0  0  0  0  0  0  0  0  0  0  0  0
   -1.9618    1.9851    0.0577 C   0  0  0  0  0  0  0  0  0  0  0  0
   -1.1602    1.0279    0.6847 C   0  0  0  0  0  0  0  0  0  0  0  0
   -0.2289    1.4611    1.6746 N   0  0  0  0  0  1  0  0  0  0  0  0
   -1.2793   -0.3412    0.3431 C   0  0  0  0  0  0  0  0  0  0  0  0
   -0.3632   -1.3649    0.9951 C   0  0  0  0  0  0  0  0  0  0  0  0
    0.9031   -1.6295    0.1635 C   0  0  0  0  0  0  0  0  0  0  0  0
    1.8109   -0.4281    0.1116 C   0  0  0  0  0  0  0  0  0  0  0  0
    2.6893   -0.1583    1.1742 C   0  0  0  0  0  0  0  0  0  0  0  0
    3.5049    0.9771    1.1425 C   0  0  0  0  0  0  0  0  0  0  0  0
    3.4452    1.8525    0.0546 C   0  0  0  0  0  0  0  0  0  0  0  0
    2.5691    1.5945   -1.0033 C   0  0  0  0  0  0  0  0  0  0  0  0
    1.7530    0.4597   -0.9765 C   0  0  0  0  0  0  0  0  0  0  0  0
   -2.9038   -2.7094   -0.1430 H   0  0  0  0  0  0  0  0  0  0  0  0
   -3.1682   -2.2648   -1.8630 H   0  0  0  0  0  0  0  0  0  0  0  0
   -1.5162   -2.6534   -1.3052 H   0  0  0  0  0  0  0  0  0  0  0  0
   -3.7768   -0.0124   -1.9861 H   0  0  0  0  0  0  0  0  0  0  0  0
   -3.5124    2.3508   -1.3824 H   0  0  0  0  0  0  0  0  0  0  0  0
   -1.8645    3.0313    0.3198 H   0  0  0  0  0  0  0  0  0  0  0  0
   -0.9026   -2.3239    1.1396 H   0  0  0  0  0  0  0  0  0  0  0  0
   -0.0744   -1.0431    2.0188 H   0  0  0  0  0  0  0  0  0  0  0  0
    0.6308   -1.9440   -0.8659 H   0  0  0  0  0  0  0  0  0  0  0  0
    1.4545   -2.4818    0.6170 H   0  0  0  0  0  0  0  0  0  0  0  0
    2.7371   -0.8234    2.0276 H   0  0  0  0  0  0  0  0  0  0  0  0
    4.1803    1.1806    1.9634 H   0  0  0  0  0  0  0  0  0  0  0  0
    4.0753    2.7322    0.0329 H   0  0  0  0  0  0  0  0  0  0  0  0
    2.5195    2.2762   -1.8425 H   0  0  0  0  0  0  0  0  0  0  0  0
    1.0696    0.2782   -1.7969 H   0  0  0  0  0  0  0  0  0  0  0  0
  1  2  1  0
  2  3  2  0
  3  4  1  0
  4  5  2  0
  5  6  1  0
  6  7  1  0
  6  8  2  0
  8  9  1  0
  9 10  1  0
 10 11  1  0
 11 12  2  0
 12 13  1  0
 13 14  2  0
 14 15  1  0
 15 16  2  0
  8  2  1  0
 16 11  1  0
  1 17  1  0
  1 18  1  0
  1 19  1  0
  3 20  1  0
  4 21  1  0
  5 22  1  0
  9 23  1  0
  9 24  1  0
 10 25  1  0
 10 26  1  0
 12 27  1  0
 13 28  1  0
 14 29  1  0
 15 30  1  0
 16 31  1  0
M  RAD  1   7   3
M  END
$$$$
