
     RDKit          3D

 31 32  0  0  0  0  0  0  0  0999 V2000
   -1.9999   -2.0627   -0.5024 C   0  0  0  0  0  0  0  0  0  0  0  0
   -2.5223   -0.7096   -0.0911 C   0  0  0  0  0  0  0  0  0  0  0  0
   -3.8914   -0.4372   -0.2553 C   0  0  0  0  0  0  0  0  0  0  0  0
   -4.4206    0.7974    0.1170 C   0  0  0  0  0  0  0  0  0  0  0  0
   -3.5937    1.7776    0.6601 C   0  0  0  0  0  0  0  0  0  0  0  0
   -2.2309    1.5293    0.8438 C   0  0  0  0  0  0  0  0  0  0  0  0
   -1.4133    2.5613    1.3931 N   0  0  0  0  0  1  0  0  0  0  0  0
   -1.6779    0.2773    0.4871 C   0  0  0  0  0  0  0  0  0  0  0  0
   -0.1923    0.0356    0.6746 C   0  0  0  0  0  0  0  0  0  0  0  0
    0.5976    0.5456   -0.5357 C   0  0  0  0  0  0  0  0  0  0  0  0
    2.0653    0.2591   -0.3680 C   0  0  0  0  0  0  0  0  0  0  0  0
    2.8996    1.1864    0.2784 C   0  0  0  0  0  0  0  0  0  0  0  0
    4.2565    0.9030    0.4632 C   0  0  0  0  0  0  0  0  0  0  0  0
    4.7865   -0.3098    0.0140 C   0  0  0  0  0  0  0  0  0  0  0  0
    3.9595   -1.2433   -0.6169 C   0  0  0  0  0  0  0  0  0  0  0  0
    2.6021   -0.9639   -0.8038 C   0  0  0  0  0  0  0  0  0  0  0  0
   -2.7588   -2.6379   -1.0745 H   0  0  0  0  0  0  0  0  0  0  0  0
   -1.1081   -1.9524   -1.1530 H   0  0  0  0  0  0  0  0  0  0  0  0
   -1.7306   -2.6491    0.4008 H   0  0  0  0  0  0  0  0  0  0  0  0
   -4.5550   -1.1823   -0.6768 H   0  0  0  0  0  0  0  0  0  0  0  0
   -5.4759    0.9961   -0.0191 H   0  0  0  0  0  0  0  0  0  0  0  0
   -4.0142    2.7358    0.9389 H   0  0  0  0  0  0  0  0  0  0  0  0
    0.0178   -1.0424    0.8369 H   0  0  0  0  0  0  0  0  0  0  0  0
    0.1643    0.5501    1.5934 H   0  0  0  0  0  0  0  0  0  0  0  0
    0.4392    1.6401   -0.6533 H   0  0  0  0  0  0  0  0  0  0  0  0
    0.2255    0.0611   -1.4646 H   0  0  0  0  0  0  0  0  0  0  0  0
    2.4991    2.1256    0.6396 H   0  0  0  0  0  0  0  0  0  0  0  0
    4.8965    1.6222    0.9579 H   0  0  0  0  0  0  0  0  0  0  0  0
    5.8366   -0.5282    0.1591 H   0  0  0  0  0  0  0  0  0  0  0  0
    4.3695   -2.1851   -0.9580 H   0  0  0  0  0  0  0  0  0  0  0  0
    1.9694   -1.6996   -1.2852 H   0  0  0  0  0  0  0  0  0  0  0  0
  1  2  1  0
  2  3  2  0
  3  4  1  0
  4  5  2  0
  5  6  1  0
  6  7  1  0
  6  8  2  0
  8  9  1  0
  9 10  1  0
 10 11  1  0
 11 12  2  0
 12 13  1  0
 13 14  2  0
 14 15  1  0
 15 16  2  0
  8  2  1  0
 16 11  1  0
  1 17  1  0
  1 18  1  0
  1 19  1  0
  3 20  1  0
  4 21  1  0
  5 22  1  0
  9 23  1  0
  9 24  1  0
 10 25  1  0
 10 26  1  0
 12 27  1  0
 13 28  1  0
 14 29  1  0
 15 30  1  0
 16 31  1  0
M  RAD  1   7   3
M  END
$$$$
