
     RDKit          3D

 31 32  0  0  0  0  0  0  0  0999 V2000
   -1.5028   -0.9456   -1.3284 C   0  0  0  0  0  0  0  0  0  0  0  0
   -1.7455   -0.2291   -0.0244 C   0  0  0  0  0  0  0  0  0  0  0  0
   -2.5316   -0.8647    0.9524 C   0  0  0  0  0  0  0  0  0  0  0  0
   -2.8129   -0.2332    2.1621 C   0  0  0  0  0  0  0  0  0  0  0  0
   -2.3234    1.0454    2.4132 C   0  0  0  0  0  0  0  0  0  0  0  0
   -1.5415    1.7021    1.4598 C   0  0  0  0  0  0  0  0  0  0  0  0
   -1.0687    3.0163    1.7501 N   0  0  0  0  0  1  0  0  0  0  0  0
   -1.2333    1.0743    0.2294 C   0  0  0  0  0  0  0  0  0  0  0  0
   -0.3383    1.7936   -0.7681 C   0  0  0  0  0  0  0  0  0  0  0  0
    1.1398    1.7756   -0.3446 C   0  0  0  0  0  0  0  0  0  0  0  0
    1.7225    0.3871   -0.3832 C   0  0  0  0  0  0  0  0  0  0  0  0
    1.6717   -0.4359    0.7549 C   0  0  0  0  0  0  0  0  0  0  0  0
    2.1723   -1.7401    0.7035 C   0  0  0  0  0  0  0  0  0  0  0  0
    2.7249   -2.2321   -0.4821 C   0  0  0  0  0  0  0  0  0  0  0  0
    2.7759   -1.4212   -1.6192 C   0  0  0  0  0  0  0  0  0  0  0  0
    2.2744   -0.1167   -1.5730 C   0  0  0  0  0  0  0  0  0  0  0  0
   -1.9761   -0.3824   -2.1597 H   0  0  0  0  0  0  0  0  0  0  0  0
   -0.4164   -1.0466   -1.5174 H   0  0  0  0  0  0  0  0  0  0  0  0
   -1.9344   -1.9691   -1.3226 H   0  0  0  0  0  0  0  0  0  0  0  0
   -2.9339   -1.8552    0.7782 H   0  0  0  0  0  0  0  0  0  0  0  0
   -3.4190   -0.7349    2.9055 H   0  0  0  0  0  0  0  0  0  0  0  0
   -2.5543    1.5296    3.3540 H   0  0  0  0  0  0  0  0  0  0  0  0
   -0.4330    1.3805   -1.7929 H   0  0  0  0  0  0  0  0  0  0  0  0
   -0.6687    2.8517   -0.8497 H   0  0  0  0  0  0  0  0  0  0  0  0
    1.2558    2.2080    0.6724 H   0  0  0  0  0  0  0  0  0  0  0  0
    1.7142    2.4350   -1.0314 H   0  0  0  0  0  0  0  0  0  0  0  0
    1.2363   -0.0706    1.6769 H   0  0  0  0  0  0  0  0  0  0  0  0
    2.1285   -2.3708    1.5820 H   0  0  0  0  0  0  0  0  0  0  0  0
    3.1106   -3.2426   -0.5206 H   0  0  0  0  0  0  0  0  0  0  0  0
    3.1993   -1.8052   -2.5383 H   0  0  0  0  0  0  0  0  0  0  0  0
    2.3075    0.4969   -2.4648 H   0  0  0  0  0  0  0  0  0  0  0  0
  1  2  1  0
  2  3  2  0
  3  4  1  0
  4  5  2  0
  5  6  1  0
  6  7  1  0
  6  8  2  0
  8  9  1  0
  9 10  1  0
 10 11  1  0
 11 12  2  0
 12 13  1  0
 13 14  2  0
 14 15  1  0
 15 16  2  0
  8  2  1  0
 16 11  1  0
  1 17  1  0
  1 18  1  0
  1 19  1  0
  3 20  1  0
  4 21  1  0
  5 22  1  0
  9 23  1  0
  9 24  1  0
 10 25  1  0
 10 26  1  0
 12 27  1  0
 13 28  1  0
 14 29  1  0
 15 30  1  0
 16 31  1  0
M  RAD  1   7   3
M  END
$$$$
