
     RDKit          3D

 31 32  0  0  0  0  0  0  0  0999 V2000
   -1.4845    0.4029   -1.6127 C   0  0  0  0  0  0  0  0  0  0  0  0
   -1.7185   -0.2615   -0.2799 C   0  0  0  0  0  0  0  0  0  0  0  0
   -2.3915   -1.4955   -0.2560 C   0  0  0  0  0  0  0  0  0  0  0  0
   -2.6615   -2.1364    0.9513 C   0  0  0  0  0  0  0  0  0  0  0  0
   -2.2737   -1.5529    2.1541 C   0  0  0  0  0  0  0  0  0  0  0  0
   -1.6054   -0.3262    2.1608 C   0  0  0  0  0  0  0  0  0  0  0  0
   -1.2353    0.2445    3.4147 N   0  0  0  0  0  1  0  0  0  0  0  0
   -1.3101    0.3362    0.9455 C   0  0  0  0  0  0  0  0  0  0  0  0
   -0.5372    1.6457    0.9817 C   0  0  0  0  0  0  0  0  0  0  0  0
    0.9575    1.4331    1.2737 C   0  0  0  0  0  0  0  0  0  0  0  0
    1.6573    0.7161    0.1489 C   0  0  0  0  0  0  0  0  0  0  0  0
    2.1863    1.4407   -0.9325 C   0  0  0  0  0  0  0  0  0  0  0  0
    2.7975    0.7707   -1.9968 C   0  0  0  0  0  0  0  0  0  0  0  0
    2.8796   -0.6245   -1.9921 C   0  0  0  0  0  0  0  0  0  0  0  0
    2.3508   -1.3525   -0.9228 C   0  0  0  0  0  0  0  0  0  0  0  0
    1.7408   -0.6868    0.1446 C   0  0  0  0  0  0  0  0  0  0  0  0
   -0.4052    0.6011   -1.7615 H   0  0  0  0  0  0  0  0  0  0  0  0
   -2.0498    1.3569   -1.6607 H   0  0  0  0  0  0  0  0  0  0  0  0
   -1.8233   -0.2354   -2.4563 H   0  0  0  0  0  0  0  0  0  0  0  0
   -2.7138   -1.9661   -1.1768 H   0  0  0  0  0  0  0  0  0  0  0  0
   -3.1799   -3.0866    0.9546 H   0  0  0  0  0  0  0  0  0  0  0  0
   -2.4951   -2.0565    3.0869 H   0  0  0  0  0  0  0  0  0  0  0  0
   -0.9634    2.2928    1.7785 H   0  0  0  0  0  0  0  0  0  0  0  0
   -0.6504    2.2275    0.0444 H   0  0  0  0  0  0  0  0  0  0  0  0
    1.0898    0.8709    2.2229 H   0  0  0  0  0  0  0  0  0  0  0  0
    1.4336    2.4257    1.4300 H   0  0  0  0  0  0  0  0  0  0  0  0
    2.1170    2.5211   -0.9547 H   0  0  0  0  0  0  0  0  0  0  0  0
    3.2028    1.3330   -2.8281 H   0  0  0  0  0  0  0  0  0  0  0  0
    3.3502   -1.1415   -2.8183 H   0  0  0  0  0  0  0  0  0  0  0  0
    2.4102   -2.4331   -0.9226 H   0  0  0  0  0  0  0  0  0  0  0  0
    1.3253   -1.2634    0.9618 H   0  0  0  0  0  0  0  0  0  0  0  0
  1  2  1  0
  2  3  2  0
  3  4  1  0
  4  5  2  0
  5  6  1  0
  6  7  1  0
  6  8  2  0
  8  9  1  0
  9 10  1  0
 10 11  1  0
 11 12  2  0
 12 13  1  0
 13 14  2  0
 14 15  1  0
 15 16  2  0
  8  2  1  0
 16 11  1  0
  1 17  1  0
  1 18  1  0
  1 19  1  0
  3 20  1  0
  4 21  1  0
  5 22  1  0
  9 23  1  0
  9 24  1  0
 10 25  1  0
 10 26  1  0
 12 27  1  0
 13 28  1  0
 14 29  1  0
 15 30  1  0
 16 31  1  0
M  RAD  1   7   3
M  END
$$$$
