
     RDKit          3D

 32 33  0  0  0  0  0  0  0  0999 V2000
   -2.3236    1.7887   -1.8014 C   0  0  0  0  0  0  0  0  0  0  0  0
   -2.7207    0.4282   -1.6625 O   0  0  0  0  0  0  0  0  0  0  0  0
   -2.2389   -0.4391   -0.6709 C   0  0  0  0  0  0  0  0  0  0  0  0
   -2.6703   -1.7705   -0.6839 C   0  0  0  0  0  0  0  0  0  0  0  0
   -2.1974   -2.6782    0.2670 C   0  0  0  0  0  0  0  0  0  0  0  0
   -1.2883   -2.2627    1.2423 C   0  0  0  0  0  0  0  0  0  0  0  0
   -0.8577   -0.9281    1.2830 C   0  0  0  0  0  0  0  0  0  0  0  0
    0.1687   -0.4917    2.2974 C   0  0  0  0  0  0  0  0  0  0  0  0
    1.6011   -0.7404    1.8022 C   0  0  0  0  0  0  0  0  0  0  0  0
    1.9282    0.0953    0.5845 C   0  0  0  0  0  0  0  0  0  0  0  0
    2.2473    1.4543    0.7509 C   0  0  0  0  0  0  0  0  0  0  0  0
    2.4942    2.2656   -0.3595 C   0  0  0  0  0  0  0  0  0  0  0  0
    2.4197    1.7315   -1.6471 C   0  0  0  0  0  0  0  0  0  0  0  0
    2.0993    0.3842   -1.8278 C   0  0  0  0  0  0  0  0  0  0  0  0
    1.8519   -0.4375   -0.7217 C   0  0  0  0  0  0  0  0  0  0  0  0
    1.5094   -1.8048   -0.9380 N   0  0  0  0  0  1  0  0  0  0  0  0
   -1.3356   -0.0187    0.3243 C   0  0  0  0  0  0  0  0  0  0  0  0
   -1.2271    1.8510   -1.9688 H   0  0  0  0  0  0  0  0  0  0  0  0
   -2.6051    2.3633   -0.8939 H   0  0  0  0  0  0  0  0  0  0  0  0
   -2.8425    2.2304   -2.6765 H   0  0  0  0  0  0  0  0  0  0  0  0
   -3.3674   -2.1051   -1.4416 H   0  0  0  0  0  0  0  0  0  0  0  0
   -2.5292   -3.7082    0.2419 H   0  0  0  0  0  0  0  0  0  0  0  0
   -0.9154   -2.9812    1.9618 H   0  0  0  0  0  0  0  0  0  0  0  0
    0.0148   -1.0526    3.2450 H   0  0  0  0  0  0  0  0  0  0  0  0
    0.0357    0.5854    2.5410 H   0  0  0  0  0  0  0  0  0  0  0  0
    1.7459   -1.8232    1.5990 H   0  0  0  0  0  0  0  0  0  0  0  0
    2.3085   -0.4810    2.6198 H   0  0  0  0  0  0  0  0  0  0  0  0
    2.2953    1.8874    1.7425 H   0  0  0  0  0  0  0  0  0  0  0  0
    2.7378    3.3111   -0.2216 H   0  0  0  0  0  0  0  0  0  0  0  0
    2.6075    2.3627   -2.5060 H   0  0  0  0  0  0  0  0  0  0  0  0
    2.0381   -0.0205   -2.8303 H   0  0  0  0  0  0  0  0  0  0  0  0
   -0.9841    1.0043    0.3488 H   0  0  0  0  0  0  0  0  0  0  0  0
  1  2  1  0
  2  3  1  0
  3  4  1  0
  4  5  2  0
  5  6  1  0
  6  7  2  0
  7  8  1  0
  8  9  1  0
  9 10  1  0
 10 11  2  0
 11 12  1  0
 12 13  2  0
 13 14  1  0
 14 15  2  0
 15 16  1  0
  7 17  1  0
 17  3  2  0
 15 10  1  0
  1 18  1  0
  1 19  1  0
  1 20  1  0
  4 21  1  0
  5 22  1  0
  6 23  1  0
  8 24  1  0
  8 25  1  0
  9 26  1  0
  9 27  1  0
 11 28  1  0
 12 29  1  0
 13 30  1  0
 14 31  1  0
 17 32  1  0
M  RAD  1  16   3
M  END
$$$$
