
     RDKit          3D

 32 33  0  0  0  0  0  0  0  0999 V2000
    4.9554   -0.6815   -0.2126 C   0  0  0  0  0  0  0  0  0  0  0  0
    3.8420    0.0914   -0.6488 O   0  0  0  0  0  0  0  0  0  0  0  0
    2.6682    0.2796    0.0959 C   0  0  0  0  0  0  0  0  0  0  0  0
    2.4828   -0.2912    1.3697 C   0  0  0  0  0  0  0  0  0  0  0  0
    1.2917   -0.0789    2.0686 C   0  0  0  0  0  0  0  0  0  0  0  0
    0.2791    0.7035    1.5100 C   0  0  0  0  0  0  0  0  0  0  0  0
    0.4530    1.2860    0.2449 C   0  0  0  0  0  0  0  0  0  0  0  0
   -0.6581    2.0886   -0.3831 C   0  0  0  0  0  0  0  0  0  0  0  0
   -1.4756    1.2502   -1.3762 C   0  0  0  0  0  0  0  0  0  0  0  0
   -2.1902    0.1065   -0.6934 C   0  0  0  0  0  0  0  0  0  0  0  0
   -1.6080   -1.1737   -0.6939 C   0  0  0  0  0  0  0  0  0  0  0  0
   -2.2298   -2.2345   -0.0306 C   0  0  0  0  0  0  0  0  0  0  0  0
   -3.4355   -2.0288    0.6425 C   0  0  0  0  0  0  0  0  0  0  0  0
   -4.0212   -0.7607    0.6566 C   0  0  0  0  0  0  0  0  0  0  0  0
   -3.4047    0.3090   -0.0036 C   0  0  0  0  0  0  0  0  0  0  0  0
   -4.0169    1.5962    0.0356 N   0  0  0  0  0  1  0  0  0  0  0  0
    1.6480    1.0631   -0.4579 C   0  0  0  0  0  0  0  0  0  0  0  0
    5.7408   -0.6598   -0.9956 H   0  0  0  0  0  0  0  0  0  0  0  0
    4.6471   -1.7354   -0.0470 H   0  0  0  0  0  0  0  0  0  0  0  0
    5.3739   -0.2538    0.7229 H   0  0  0  0  0  0  0  0  0  0  0  0
    3.2496   -0.9024    1.8256 H   0  0  0  0  0  0  0  0  0  0  0  0
    1.1513   -0.5259    3.0444 H   0  0  0  0  0  0  0  0  0  0  0  0
   -0.6438    0.8469    2.0584 H   0  0  0  0  0  0  0  0  0  0  0  0
   -1.3281    2.5049    0.4007 H   0  0  0  0  0  0  0  0  0  0  0  0
   -0.2216    2.9573   -0.9224 H   0  0  0  0  0  0  0  0  0  0  0  0
   -0.8069    0.8666   -2.1781 H   0  0  0  0  0  0  0  0  0  0  0  0
   -2.2181    1.9070   -1.8785 H   0  0  0  0  0  0  0  0  0  0  0  0
   -0.6663   -1.3478   -1.1999 H   0  0  0  0  0  0  0  0  0  0  0  0
   -1.7740   -3.2161   -0.0350 H   0  0  0  0  0  0  0  0  0  0  0  0
   -3.9149   -2.8517    1.1567 H   0  0  0  0  0  0  0  0  0  0  0  0
   -4.9541   -0.6087    1.1850 H   0  0  0  0  0  0  0  0  0  0  0  0
    1.7850    1.4945   -1.4421 H   0  0  0  0  0  0  0  0  0  0  0  0
  1  2  1  0
  2  3  1  0
  3  4  1  0
  4  5  2  0
  5  6  1  0
  6  7  2  0
  7  8  1  0
  8  9  1  0
  9 10  1  0
 10 11  2  0
 11 12  1  0
 12 13  2  0
 13 14  1  0
 14 15  2  0
 15 16  1  0
  7 17  1  0
 17  3  2  0
 15 10  1  0
  1 18  1  0
  1 19  1  0
  1 20  1  0
  4 21  1  0
  5 22  1  0
  6 23  1  0
  8 24  1  0
  8 25  1  0
  9 26  1  0
  9 27  1  0
 11 28  1  0
 12 29  1  0
 13 30  1  0
 14 31  1  0
 17 32  1  0
M  RAD  1  16   3
M  END
$$$$
