
     RDKit          3D

 32 33  0  0  0  0  0  0  0  0999 V2000
   -4.6814    0.2498   -1.7754 C   0  0  0  0  0  0  0  0  0  0  0  0
   -3.7056   -0.5705   -1.1412 O   0  0  0  0  0  0  0  0  0  0  0  0
   -2.6595   -0.0836   -0.3434 C   0  0  0  0  0  0  0  0  0  0  0  0
   -2.4778    1.2900   -0.0926 C   0  0  0  0  0  0  0  0  0  0  0  0
   -1.4156    1.7248    0.7042 C   0  0  0  0  0  0  0  0  0  0  0  0
   -0.5295    0.7997    1.2597 C   0  0  0  0  0  0  0  0  0  0  0  0
   -0.7029   -0.5733    1.0256 C   0  0  0  0  0  0  0  0  0  0  0  0
    0.2815   -1.5709    1.5814 C   0  0  0  0  0  0  0  0  0  0  0  0
    1.3289   -1.9808    0.5362 C   0  0  0  0  0  0  0  0  0  0  0  0
    2.1899   -0.8126    0.1134 C   0  0  0  0  0  0  0  0  0  0  0  0
    1.8693   -0.1035   -1.0581 C   0  0  0  0  0  0  0  0  0  0  0  0
    2.6253    1.0066   -1.4429 C   0  0  0  0  0  0  0  0  0  0  0  0
    3.7054    1.4227   -0.6623 C   0  0  0  0  0  0  0  0  0  0  0  0
    4.0305    0.7314    0.5072 C   0  0  0  0  0  0  0  0  0  0  0  0
    3.2777   -0.3810    0.9021 C   0  0  0  0  0  0  0  0  0  0  0  0
    3.6230   -1.0624    2.1062 N   0  0  0  0  0  1  0  0  0  0  0  0
   -1.7666   -1.0054    0.2173 C   0  0  0  0  0  0  0  0  0  0  0  0
   -5.2543    0.8199   -1.0138 H   0  0  0  0  0  0  0  0  0  0  0  0
   -5.3854   -0.3951   -2.3402 H   0  0  0  0  0  0  0  0  0  0  0  0
   -4.1901    0.9476   -2.4860 H   0  0  0  0  0  0  0  0  0  0  0  0
   -3.1481    2.0283   -0.5111 H   0  0  0  0  0  0  0  0  0  0  0  0
   -1.2761    2.7823    0.8879 H   0  0  0  0  0  0  0  0  0  0  0  0
    0.2971    1.1536    1.8634 H   0  0  0  0  0  0  0  0  0  0  0  0
   -0.2669   -2.4791    1.9139 H   0  0  0  0  0  0  0  0  0  0  0  0
    0.7877   -1.1578    2.4812 H   0  0  0  0  0  0  0  0  0  0  0  0
    0.8192   -2.4268   -0.3462 H   0  0  0  0  0  0  0  0  0  0  0  0
    1.9705   -2.7819    0.9622 H   0  0  0  0  0  0  0  0  0  0  0  0
    1.0267   -0.4047   -1.6683 H   0  0  0  0  0  0  0  0  0  0  0  0
    2.3707    1.5473   -2.3453 H   0  0  0  0  0  0  0  0  0  0  0  0
    4.2889    2.2837   -0.9617 H   0  0  0  0  0  0  0  0  0  0  0  0
    4.8669    1.0636    1.1094 H   0  0  0  0  0  0  0  0  0  0  0  0
   -1.8991   -2.0618    0.0169 H   0  0  0  0  0  0  0  0  0  0  0  0
  1  2  1  0
  2  3  1  0
  3  4  1  0
  4  5  2  0
  5  6  1  0
  6  7  2  0
  7  8  1  0
  8  9  1  0
  9 10  1  0
 10 11  2  0
 11 12  1  0
 12 13  2  0
 13 14  1  0
 14 15  2  0
 15 16  1  0
  7 17  1  0
 17  3  2  0
 15 10  1  0
  1 18  1  0
  1 19  1  0
  1 20  1  0
  4 21  1  0
  5 22  1  0
  6 23  1  0
  8 24  1  0
  8 25  1  0
  9 26  1  0
  9 27  1  0
 11 28  1  0
 12 29  1  0
 13 30  1  0
 14 31  1  0
 17 32  1  0
M  RAD  1  16   3
M  END
$$$$
