
     RDKit          3D

 32 33  0  0  0  0  0  0  0  0999 V2000
    4.8149    1.3583   -0.2900 C   0  0  0  0  0  0  0  0  0  0  0  0
    3.8306    0.4106   -0.6901 O   0  0  0  0  0  0  0  0  0  0  0  0
    2.6808    0.1018    0.0520 C   0  0  0  0  0  0  0  0  0  0  0  0
    2.3919    0.7148    1.2864 C   0  0  0  0  0  0  0  0  0  0  0  0
    1.2294    0.3770    1.9840 C   0  0  0  0  0  0  0  0  0  0  0  0
    0.3486   -0.5731    1.4634 C   0  0  0  0  0  0  0  0  0  0  0  0
    0.6276   -1.1988    0.2384 C   0  0  0  0  0  0  0  0  0  0  0  0
   -0.3465   -2.1870   -0.3513 C   0  0  0  0  0  0  0  0  0  0  0  0
   -1.2548   -1.5336   -1.4027 C   0  0  0  0  0  0  0  0  0  0  0  0
   -2.1370   -0.4648   -0.7992 C   0  0  0  0  0  0  0  0  0  0  0  0
   -1.7416    0.8829   -0.8719 C   0  0  0  0  0  0  0  0  0  0  0  0
   -2.5198    1.8819   -0.2817 C   0  0  0  0  0  0  0  0  0  0  0  0
   -3.6972    1.5470    0.3896 C   0  0  0  0  0  0  0  0  0  0  0  0
   -4.0980    0.2116    0.4751 C   0  0  0  0  0  0  0  0  0  0  0  0
   -3.3238   -0.7967   -0.1115 C   0  0  0  0  0  0  0  0  0  0  0  0
   -3.7487   -2.1533   -0.0001 N   0  0  0  0  0  1  0  0  0  0  0  0
    1.7926   -0.8502   -0.4637 C   0  0  0  0  0  0  0  0  0  0  0  0
    4.3577    2.3657   -0.1927 H   0  0  0  0  0  0  0  0  0  0  0  0
    5.6105    1.4023   -1.0615 H   0  0  0  0  0  0  0  0  0  0  0  0
    5.2714    1.0507    0.6745 H   0  0  0  0  0  0  0  0  0  0  0  0
    3.0557    1.4547    1.7122 H   0  0  0  0  0  0  0  0  0  0  0  0
    1.0084    0.8564    2.9289 H   0  0  0  0  0  0  0  0  0  0  0  0
   -0.5553   -0.8136    2.0095 H   0  0  0  0  0  0  0  0  0  0  0  0
    0.2188   -3.0152   -0.8315 H   0  0  0  0  0  0  0  0  0  0  0  0
   -0.9661   -2.6472    0.4493 H   0  0  0  0  0  0  0  0  0  0  0  0
   -0.6315   -1.1069   -2.2194 H   0  0  0  0  0  0  0  0  0  0  0  0
   -1.8871   -2.3178   -1.8718 H   0  0  0  0  0  0  0  0  0  0  0  0
   -0.8242    1.1589   -1.3774 H   0  0  0  0  0  0  0  0  0  0  0  0
   -2.2072    2.9164   -0.3413 H   0  0  0  0  0  0  0  0  0  0  0  0
   -4.2979    2.3224    0.8471 H   0  0  0  0  0  0  0  0  0  0  0  0
   -5.0102   -0.0400    1.0017 H   0  0  0  0  0  0  0  0  0  0  0  0
    2.0083   -1.3152   -1.4181 H   0  0  0  0  0  0  0  0  0  0  0  0
  1  2  1  0
  2  3  1  0
  3  4  1  0
  4  5  2  0
  5  6  1  0
  6  7  2  0
  7  8  1  0
  8  9  1  0
  9 10  1  0
 10 11  2  0
 11 12  1  0
 12 13  2  0
 13 14  1  0
 14 15  2  0
 15 16  1  0
  7 17  1  0
 17  3  2  0
 15 10  1  0
  1 18  1  0
  1 19  1  0
  1 20  1  0
  4 21  1  0
  5 22  1  0
  6 23  1  0
  8 24  1  0
  8 25  1  0
  9 26  1  0
  9 27  1  0
 11 28  1  0
 12 29  1  0
 13 30  1  0
 14 31  1  0
 17 32  1  0
M  RAD  1  16   3
M  END
$$$$
