
     RDKit          3D

 32 33  0  0  0  0  0  0  0  0999 V2000
    5.4517   -1.3834   -0.6999 C   0  0  0  0  0  0  0  0  0  0  0  0
    4.0425   -1.3011   -0.8859 O   0  0  0  0  0  0  0  0  0  0  0  0
    3.2342   -0.2768   -0.3707 C   0  0  0  0  0  0  0  0  0  0  0  0
    3.7562    0.7844    0.3939 C   0  0  0  0  0  0  0  0  0  0  0  0
    2.9072    1.7767    0.8909 C   0  0  0  0  0  0  0  0  0  0  0  0
    1.5365    1.7251    0.6287 C   0  0  0  0  0  0  0  0  0  0  0  0
    1.0043    0.6820   -0.1442 C   0  0  0  0  0  0  0  0  0  0  0  0
   -0.4774    0.6059   -0.3979 C   0  0  0  0  0  0  0  0  0  0  0  0
   -1.1736   -0.1872    0.7122 C   0  0  0  0  0  0  0  0  0  0  0  0
   -2.6595   -0.2615    0.4605 C   0  0  0  0  0  0  0  0  0  0  0  0
   -3.1847   -1.3428   -0.2685 C   0  0  0  0  0  0  0  0  0  0  0  0
   -4.5538   -1.4158   -0.5389 C   0  0  0  0  0  0  0  0  0  0  0  0
   -5.4102   -0.4068   -0.0940 C   0  0  0  0  0  0  0  0  0  0  0  0
   -4.8991    0.6806    0.6184 C   0  0  0  0  0  0  0  0  0  0  0  0
   -3.5288    0.7628    0.8940 C   0  0  0  0  0  0  0  0  0  0  0  0
   -3.0300    1.8911    1.6093 N   0  0  0  0  0  1  0  0  0  0  0  0
    1.8586   -0.3212   -0.6301 C   0  0  0  0  0  0  0  0  0  0  0  0
    5.9475   -0.4919   -1.1388 H   0  0  0  0  0  0  0  0  0  0  0  0
    5.6903   -1.4600    0.3820 H   0  0  0  0  0  0  0  0  0  0  0  0
    5.8327   -2.2902   -1.2127 H   0  0  0  0  0  0  0  0  0  0  0  0
    4.8132    0.8487    0.6128 H   0  0  0  0  0  0  0  0  0  0  0  0
    3.3126    2.5864    1.4840 H   0  0  0  0  0  0  0  0  0  0  0  0
    0.8897    2.4963    1.0288 H   0  0  0  0  0  0  0  0  0  0  0  0
   -0.6667    0.1196   -1.3805 H   0  0  0  0  0  0  0  0  0  0  0  0
   -0.9025    1.6325   -0.4509 H   0  0  0  0  0  0  0  0  0  0  0  0
   -0.7469   -1.2138    0.7586 H   0  0  0  0  0  0  0  0  0  0  0  0
   -0.9763    0.2877    1.6981 H   0  0  0  0  0  0  0  0  0  0  0  0
   -2.5329   -2.1291   -0.6290 H   0  0  0  0  0  0  0  0  0  0  0  0
   -4.9506   -2.2541   -1.0970 H   0  0  0  0  0  0  0  0  0  0  0  0
   -6.4701   -0.4648   -0.3057 H   0  0  0  0  0  0  0  0  0  0  0  0
   -5.5690    1.4628    0.9532 H   0  0  0  0  0  0  0  0  0  0  0  0
    1.4548   -1.1419   -1.2108 H   0  0  0  0  0  0  0  0  0  0  0  0
  1  2  1  0
  2  3  1  0
  3  4  1  0
  4  5  2  0
  5  6  1  0
  6  7  2  0
  7  8  1  0
  8  9  1  0
  9 10  1  0
 10 11  2  0
 11 12  1  0
 12 13  2  0
 13 14  1  0
 14 15  2  0
 15 16  1  0
  7 17  1  0
 17  3  2  0
 15 10  1  0
  1 18  1  0
  1 19  1  0
  1 20  1  0
  4 21  1  0
  5 22  1  0
  6 23  1  0
  8 24  1  0
  8 25  1  0
  9 26  1  0
  9 27  1  0
 11 28  1  0
 12 29  1  0
 13 30  1  0
 14 31  1  0
 17 32  1  0
M  RAD  1  16   3
M  END
$$$$
