
     RDKit          3D

 32 33  0  0  0  0  0  0  0  0999 V2000
    5.4516   -1.1523    1.0738 C   0  0  0  0  0  0  0  0  0  0  0  0
    4.1283   -1.2494    0.5574 O   0  0  0  0  0  0  0  0  0  0  0  0
    3.2373   -0.1708    0.4542 C   0  0  0  0  0  0  0  0  0  0  0  0
    3.5797    1.1328    0.8620 C   0  0  0  0  0  0  0  0  0  0  0  0
    2.6530    2.1721    0.7454 C   0  0  0  0  0  0  0  0  0  0  0  0
    1.3830    1.9257    0.2192 C   0  0  0  0  0  0  0  0  0  0  0  0
    1.0329    0.6350   -0.2052 C   0  0  0  0  0  0  0  0  0  0  0  0
   -0.3471    0.3606   -0.7396 C   0  0  0  0  0  0  0  0  0  0  0  0
   -1.2995   -0.0185    0.3985 C   0  0  0  0  0  0  0  0  0  0  0  0
   -2.6843   -0.2906   -0.1357 C   0  0  0  0  0  0  0  0  0  0  0  0
   -3.0385   -1.6002   -0.5048 C   0  0  0  0  0  0  0  0  0  0  0  0
   -4.3053   -1.8694   -1.0299 C   0  0  0  0  0  0  0  0  0  0  0  0
   -5.2266   -0.8344   -1.2014 C   0  0  0  0  0  0  0  0  0  0  0  0
   -4.8820    0.4736   -0.8528 C   0  0  0  0  0  0  0  0  0  0  0  0
   -3.6151    0.7533   -0.3261 C   0  0  0  0  0  0  0  0  0  0  0  0
   -3.2824    2.0994    0.0070 N   0  0  0  0  0  1  0  0  0  0  0  0
    1.9620   -0.4099   -0.0732 C   0  0  0  0  0  0  0  0  0  0  0  0
    6.0516   -0.4502    0.4571 H   0  0  0  0  0  0  0  0  0  0  0  0
    5.4252   -0.8078    2.1292 H   0  0  0  0  0  0  0  0  0  0  0  0
    5.9289   -2.1529    1.0386 H   0  0  0  0  0  0  0  0  0  0  0  0
    4.5554    1.3518    1.2736 H   0  0  0  0  0  0  0  0  0  0  0  0
    2.9189    3.1709    1.0669 H   0  0  0  0  0  0  0  0  0  0  0  0
    0.6722    2.7394    0.1438 H   0  0  0  0  0  0  0  0  0  0  0  0
   -0.7311    1.2611   -1.2679 H   0  0  0  0  0  0  0  0  0  0  0  0
   -0.3055   -0.4654   -1.4837 H   0  0  0  0  0  0  0  0  0  0  0  0
   -1.3344    0.7988    1.1516 H   0  0  0  0  0  0  0  0  0  0  0  0
   -0.9125   -0.9212    0.9212 H   0  0  0  0  0  0  0  0  0  0  0  0
   -2.3324   -2.4130   -0.3871 H   0  0  0  0  0  0  0  0  0  0  0  0
   -4.5716   -2.8812   -1.3073 H   0  0  0  0  0  0  0  0  0  0  0  0
   -6.2067   -1.0450   -1.6095 H   0  0  0  0  0  0  0  0  0  0  0  0
   -5.5996    1.2718   -0.9961 H   0  0  0  0  0  0  0  0  0  0  0  0
    1.6946   -1.4142   -0.3791 H   0  0  0  0  0  0  0  0  0  0  0  0
  1  2  1  0
  2  3  1  0
  3  4  1  0
  4  5  2  0
  5  6  1  0
  6  7  2  0
  7  8  1  0
  8  9  1  0
  9 10  1  0
 10 11  2  0
 11 12  1  0
 12 13  2  0
 13 14  1  0
 14 15  2  0
 15 16  1  0
  7 17  1  0
 17  3  2  0
 15 10  1  0
  1 18  1  0
  1 19  1  0
  1 20  1  0
  4 21  1  0
  5 22  1  0
  6 23  1  0
  8 24  1  0
  8 25  1  0
  9 26  1  0
  9 27  1  0
 11 28  1  0
 12 29  1  0
 13 30  1  0
 14 31  1  0
 17 32  1  0
M  RAD  1  16   3
M  END
$$$$
