
     RDKit          3D

 32 33  0  0  0  0  0  0  0  0999 V2000
   -3.2374    2.7983    0.5418 C   0  0  0  0  0  0  0  0  0  0  0  0
   -2.1497    1.9562    0.9091 O   0  0  0  0  0  0  0  0  0  0  0  0
   -2.0051    0.6237    0.4954 C   0  0  0  0  0  0  0  0  0  0  0  0
   -2.9464   -0.0159   -0.3339 C   0  0  0  0  0  0  0  0  0  0  0  0
   -2.7507   -1.3425   -0.7266 C   0  0  0  0  0  0  0  0  0  0  0  0
   -1.6211   -2.0431   -0.2981 C   0  0  0  0  0  0  0  0  0  0  0  0
   -0.6802   -1.4225    0.5371 C   0  0  0  0  0  0  0  0  0  0  0  0
    0.5660   -2.1605    0.9557 C   0  0  0  0  0  0  0  0  0  0  0  0
    1.6433   -2.1244   -0.1378 C   0  0  0  0  0  0  0  0  0  0  0  0
    2.1234   -0.7169   -0.4095 C   0  0  0  0  0  0  0  0  0  0  0  0
    1.5694    0.0101   -1.4784 C   0  0  0  0  0  0  0  0  0  0  0  0
    1.9638    1.3290   -1.7173 C   0  0  0  0  0  0  0  0  0  0  0  0
    2.9115    1.9366   -0.8917 C   0  0  0  0  0  0  0  0  0  0  0  0
    3.4654    1.2278    0.1770 C   0  0  0  0  0  0  0  0  0  0  0  0
    3.0748   -0.0934    0.4258 C   0  0  0  0  0  0  0  0  0  0  0  0
    3.6459   -0.7910    1.5305 N   0  0  0  0  0  1  0  0  0  0  0  0
   -0.8778   -0.0868    0.9250 C   0  0  0  0  0  0  0  0  0  0  0  0
   -4.1937    2.3681    0.9073 H   0  0  0  0  0  0  0  0  0  0  0  0
   -3.0963    3.7958    1.0058 H   0  0  0  0  0  0  0  0  0  0  0  0
   -3.2698    2.9205   -0.5615 H   0  0  0  0  0  0  0  0  0  0  0  0
   -3.8281    0.5037   -0.6832 H   0  0  0  0  0  0  0  0  0  0  0  0
   -3.4740   -1.8274   -1.3695 H   0  0  0  0  0  0  0  0  0  0  0  0
   -1.4760   -3.0665   -0.6213 H   0  0  0  0  0  0  0  0  0  0  0  0
    0.9711   -1.7339    1.8994 H   0  0  0  0  0  0  0  0  0  0  0  0
    0.3093   -3.2207    1.1705 H   0  0  0  0  0  0  0  0  0  0  0  0
    2.5011   -2.7562    0.1785 H   0  0  0  0  0  0  0  0  0  0  0  0
    1.2440   -2.5848   -1.0684 H   0  0  0  0  0  0  0  0  0  0  0  0
    0.8229   -0.4413   -2.1203 H   0  0  0  0  0  0  0  0  0  0  0  0
    1.5307    1.8818   -2.5408 H   0  0  0  0  0  0  0  0  0  0  0  0
    3.2146    2.9588   -1.0778 H   0  0  0  0  0  0  0  0  0  0  0  0
    4.1964    1.7082    0.8153 H   0  0  0  0  0  0  0  0  0  0  0  0
   -0.1471    0.4092    1.5526 H   0  0  0  0  0  0  0  0  0  0  0  0
  1  2  1  0
  2  3  1  0
  3  4  1  0
  4  5  2  0
  5  6  1  0
  6  7  2  0
  7  8  1  0
  8  9  1  0
  9 10  1  0
 10 11  2  0
 11 12  1  0
 12 13  2  0
 13 14  1  0
 14 15  2  0
 15 16  1  0
  7 17  1  0
 17  3  2  0
 15 10  1  0
  1 18  1  0
  1 19  1  0
  1 20  1  0
  4 21  1  0
  5 22  1  0
  6 23  1  0
  8 24  1  0
  8 25  1  0
  9 26  1  0
  9 27  1  0
 11 28  1  0
 12 29  1  0
 13 30  1  0
 14 31  1  0
 17 32  1  0
M  RAD  1  16   3
M  END
$$$$
