
     RDKit          3D

 32 33  0  0  0  0  0  0  0  0999 V2000
   -3.6246    0.6092    2.2733 C   0  0  0  0  0  0  0  0  0  0  0  0
   -2.5701   -0.1288    1.6644 O   0  0  0  0  0  0  0  0  0  0  0  0
   -2.1458    0.0437    0.3386 C   0  0  0  0  0  0  0  0  0  0  0  0
   -2.7417    0.9787   -0.5294 C   0  0  0  0  0  0  0  0  0  0  0  0
   -2.2749    1.1192   -1.8389 C   0  0  0  0  0  0  0  0  0  0  0  0
   -1.2153    0.3325   -2.2957 C   0  0  0  0  0  0  0  0  0  0  0  0
   -0.6188   -0.6108   -1.4457 C   0  0  0  0  0  0  0  0  0  0  0  0
    0.5598   -1.4219   -1.9210 C   0  0  0  0  0  0  0  0  0  0  0  0
    1.8724   -0.6315   -1.8206 C   0  0  0  0  0  0  0  0  0  0  0  0
    2.2155   -0.2887   -0.3888 C   0  0  0  0  0  0  0  0  0  0  0  0
    1.8710    0.9752    0.1229 C   0  0  0  0  0  0  0  0  0  0  0  0
    2.1353    1.2950    1.4570 C   0  0  0  0  0  0  0  0  0  0  0  0
    2.7427    0.3575    2.2944 C   0  0  0  0  0  0  0  0  0  0  0  0
    3.0847   -0.9036    1.8006 C   0  0  0  0  0  0  0  0  0  0  0  0
    2.8216   -1.2342    0.4658 C   0  0  0  0  0  0  0  0  0  0  0  0
    3.1691   -2.5325   -0.0106 N   0  0  0  0  0  1  0  0  0  0  0  0
   -1.0874   -0.7451   -0.1282 C   0  0  0  0  0  0  0  0  0  0  0  0
   -4.5774    0.4315    1.7313 H   0  0  0  0  0  0  0  0  0  0  0  0
   -3.3812    1.6927    2.2742 H   0  0  0  0  0  0  0  0  0  0  0  0
   -3.7446    0.2712    3.3229 H   0  0  0  0  0  0  0  0  0  0  0  0
   -3.5612    1.6031   -0.2011 H   0  0  0  0  0  0  0  0  0  0  0  0
   -2.7322    1.8440   -2.5000 H   0  0  0  0  0  0  0  0  0  0  0  0
   -0.8554    0.4617   -3.3089 H   0  0  0  0  0  0  0  0  0  0  0  0
    0.6416   -2.3657   -1.3386 H   0  0  0  0  0  0  0  0  0  0  0  0
    0.3990   -1.7155   -2.9812 H   0  0  0  0  0  0  0  0  0  0  0  0
    2.6927   -1.2344   -2.2663 H   0  0  0  0  0  0  0  0  0  0  0  0
    1.7972    0.2935   -2.4339 H   0  0  0  0  0  0  0  0  0  0  0  0
    1.3868    1.7095   -0.5091 H   0  0  0  0  0  0  0  0  0  0  0  0
    1.8649    2.2693    1.8430 H   0  0  0  0  0  0  0  0  0  0  0  0
    2.9454    0.6069    3.3279 H   0  0  0  0  0  0  0  0  0  0  0  0
    3.5511   -1.6266    2.4581 H   0  0  0  0  0  0  0  0  0  0  0  0
   -0.6204   -1.4554    0.5435 H   0  0  0  0  0  0  0  0  0  0  0  0
  1  2  1  0
  2  3  1  0
  3  4  1  0
  4  5  2  0
  5  6  1  0
  6  7  2  0
  7  8  1  0
  8  9  1  0
  9 10  1  0
 10 11  2  0
 11 12  1  0
 12 13  2  0
 13 14  1  0
 14 15  2  0
 15 16  1  0
  7 17  1  0
 17  3  2  0
 15 10  1  0
  1 18  1  0
  1 19  1  0
  1 20  1  0
  4 21  1  0
  5 22  1  0
  6 23  1  0
  8 24  1  0
  8 25  1  0
  9 26  1  0
  9 27  1  0
 11 28  1  0
 12 29  1  0
 13 30  1  0
 14 31  1  0
 17 32  1  0
M  RAD  1  16   3
M  END
$$$$
