
     RDKit          3D

 32 33  0  0  0  0  0  0  0  0999 V2000
   -5.5489    1.1001   -0.5882 C   0  0  0  0  0  0  0  0  0  0  0  0
   -4.1667    1.2388   -0.2756 O   0  0  0  0  0  0  0  0  0  0  0  0
   -3.2691    0.1668   -0.1614 C   0  0  0  0  0  0  0  0  0  0  0  0
   -3.6638   -1.1716   -0.3507 C   0  0  0  0  0  0  0  0  0  0  0  0
   -2.7291   -2.2036   -0.2331 C   0  0  0  0  0  0  0  0  0  0  0  0
   -1.3985   -1.9147    0.0776 C   0  0  0  0  0  0  0  0  0  0  0  0
   -0.9939   -0.5871    0.2838 C   0  0  0  0  0  0  0  0  0  0  0  0
    0.4468   -0.2713    0.5838 C   0  0  0  0  0  0  0  0  0  0  0  0
    1.2315   -0.0531   -0.7133 C   0  0  0  0  0  0  0  0  0  0  0  0
    2.6768    0.2605   -0.4138 C   0  0  0  0  0  0  0  0  0  0  0  0
    3.0779    1.5997   -0.2650 C   0  0  0  0  0  0  0  0  0  0  0  0
    4.4051    1.9112    0.0423 C   0  0  0  0  0  0  0  0  0  0  0  0
    5.3422    0.8904    0.2139 C   0  0  0  0  0  0  0  0  0  0  0  0
    4.9535   -0.4450    0.0836 C   0  0  0  0  0  0  0  0  0  0  0  0
    3.6260   -0.7669   -0.2238 C   0  0  0  0  0  0  0  0  0  0  0  0
    3.2513   -2.1383   -0.3357 N   0  0  0  0  0  1  0  0  0  0  0  0
   -1.9331    0.4485    0.1507 C   0  0  0  0  0  0  0  0  0  0  0  0
   -6.0568    0.4906    0.1888 H   0  0  0  0  0  0  0  0  0  0  0  0
   -5.6691    0.6262   -1.5853 H   0  0  0  0  0  0  0  0  0  0  0  0
   -6.0174    2.1052   -0.6137 H   0  0  0  0  0  0  0  0  0  0  0  0
   -4.6871   -1.4239   -0.5929 H   0  0  0  0  0  0  0  0  0  0  0  0
   -3.0362   -3.2301   -0.3866 H   0  0  0  0  0  0  0  0  0  0  0  0
   -0.6834   -2.7244    0.1560 H   0  0  0  0  0  0  0  0  0  0  0  0
    0.5084    0.6417    1.2166 H   0  0  0  0  0  0  0  0  0  0  0  0
    0.9012   -1.1051    1.1632 H   0  0  0  0  0  0  0  0  0  0  0  0
    0.7749    0.7838   -1.2871 H   0  0  0  0  0  0  0  0  0  0  0  0
    1.1620   -0.9584   -1.3552 H   0  0  0  0  0  0  0  0  0  0  0  0
    2.3616    2.4032   -0.3855 H   0  0  0  0  0  0  0  0  0  0  0  0
    4.7066    2.9451    0.1507 H   0  0  0  0  0  0  0  0  0  0  0  0
    6.3693    1.1339    0.4531 H   0  0  0  0  0  0  0  0  0  0  0  0
    5.6848   -1.2308    0.2259 H   0  0  0  0  0  0  0  0  0  0  0  0
   -1.6266    1.4786    0.2879 H   0  0  0  0  0  0  0  0  0  0  0  0
  1  2  1  0
  2  3  1  0
  3  4  1  0
  4  5  2  0
  5  6  1  0
  6  7  2  0
  7  8  1  0
  8  9  1  0
  9 10  1  0
 10 11  2  0
 11 12  1  0
 12 13  2  0
 13 14  1  0
 14 15  2  0
 15 16  1  0
  7 17  1  0
 17  3  2  0
 15 10  1  0
  1 18  1  0
  1 19  1  0
  1 20  1  0
  4 21  1  0
  5 22  1  0
  6 23  1  0
  8 24  1  0
  8 25  1  0
  9 26  1  0
  9 27  1  0
 11 28  1  0
 12 29  1  0
 13 30  1  0
 14 31  1  0
 17 32  1  0
M  RAD  1  16   3
M  END
$$$$
