
     RDKit          3D

 32 33  0  0  0  0  0  0  0  0999 V2000
    4.6025   -1.4846    1.4731 C   0  0  0  0  0  0  0  0  0  0  0  0
    3.6857   -0.3963    1.4249 O   0  0  0  0  0  0  0  0  0  0  0  0
    2.6473   -0.2766    0.4893 C   0  0  0  0  0  0  0  0  0  0  0  0
    2.4146   -1.2431   -0.5080 C   0  0  0  0  0  0  0  0  0  0  0  0
    1.3624   -1.0805   -1.4127 C   0  0  0  0  0  0  0  0  0  0  0  0
    0.5370    0.0431   -1.3359 C   0  0  0  0  0  0  0  0  0  0  0  0
    0.7619    1.0191   -0.3527 C   0  0  0  0  0  0  0  0  0  0  0  0
   -0.1584    2.2074   -0.2345 C   0  0  0  0  0  0  0  0  0  0  0  0
   -1.2221    1.9984    0.8528 C   0  0  0  0  0  0  0  0  0  0  0  0
   -2.1473    0.8495    0.5224 C   0  0  0  0  0  0  0  0  0  0  0  0
   -1.8982   -0.4209    1.0718 C   0  0  0  0  0  0  0  0  0  0  0  0
   -2.7145   -1.5064    0.7441 C   0  0  0  0  0  0  0  0  0  0  0  0
   -3.7843   -1.3369   -0.1367 C   0  0  0  0  0  0  0  0  0  0  0  0
   -4.0388   -0.0819   -0.6947 C   0  0  0  0  0  0  0  0  0  0  0  0
   -3.2252    1.0114   -0.3740 C   0  0  0  0  0  0  0  0  0  0  0  0
   -3.4990    2.2794   -0.9661 N   0  0  0  0  0  1  0  0  0  0  0  0
    1.8152    0.8476    0.5600 C   0  0  0  0  0  0  0  0  0  0  0  0
    5.3141   -1.3224    2.3083 H   0  0  0  0  0  0  0  0  0  0  0  0
    5.1758   -1.5432    0.5238 H   0  0  0  0  0  0  0  0  0  0  0  0
    4.0572   -2.4357    1.6500 H   0  0  0  0  0  0  0  0  0  0  0  0
    3.0373   -2.1233   -0.5896 H   0  0  0  0  0  0  0  0  0  0  0  0
    1.1834   -1.8299   -2.1729 H   0  0  0  0  0  0  0  0  0  0  0  0
   -0.2831    0.1475   -2.0357 H   0  0  0  0  0  0  0  0  0  0  0  0
   -0.6510    2.4161   -1.2094 H   0  0  0  0  0  0  0  0  0  0  0  0
    0.4401    3.1094    0.0189 H   0  0  0  0  0  0  0  0  0  0  0  0
   -1.8133    2.9327    0.9646 H   0  0  0  0  0  0  0  0  0  0  0  0
   -0.7240    1.8263    1.8324 H   0  0  0  0  0  0  0  0  0  0  0  0
   -1.0646   -0.5730    1.7464 H   0  0  0  0  0  0  0  0  0  0  0  0
   -2.5148   -2.4809    1.1705 H   0  0  0  0  0  0  0  0  0  0  0  0
   -4.4148   -2.1794   -0.3901 H   0  0  0  0  0  0  0  0  0  0  0  0
   -4.8678    0.0399   -1.3808 H   0  0  0  0  0  0  0  0  0  0  0  0
    1.9866    1.5870    1.3331 H   0  0  0  0  0  0  0  0  0  0  0  0
  1  2  1  0
  2  3  1  0
  3  4  1  0
  4  5  2  0
  5  6  1  0
  6  7  2  0
  7  8  1  0
  8  9  1  0
  9 10  1  0
 10 11  2  0
 11 12  1  0
 12 13  2  0
 13 14  1  0
 14 15  2  0
 15 16  1  0
  7 17  1  0
 17  3  2  0
 15 10  1  0
  1 18  1  0
  1 19  1  0
  1 20  1  0
  4 21  1  0
  5 22  1  0
  6 23  1  0
  8 24  1  0
  8 25  1  0
  9 26  1  0
  9 27  1  0
 11 28  1  0
 12 29  1  0
 13 30  1  0
 14 31  1  0
 17 32  1  0
M  RAD  1  16   3
M  END
$$$$
