
     RDKit          3D

 31 32  0  0  0  0  0  0  0  0999 V2000
   -0.4131   -4.1076    1.0858 N   0  0  0  0  0  1  0  0  0  0  0  0
    0.2869   -2.7406    0.2924 S   0  0  0  0  0  0  0  0  0  0  0  0
    0.8109   -3.1988   -1.0387 O   0  0  0  0  0  0  0  0  0  0  0  0
    1.4188   -2.2287    1.1364 O   0  0  0  0  0  0  0  0  0  0  0  0
   -0.9266   -1.4629    0.0818 C   0  0  0  0  0  0  0  0  0  0  0  0
   -2.1367   -1.5801    0.7837 C   0  0  0  0  0  0  0  0  0  0  0  0
   -3.1260   -0.6035    0.6776 C   0  0  0  0  0  0  0  0  0  0  0  0
   -2.9362    0.5138   -0.1448 C   0  0  0  0  0  0  0  0  0  0  0  0
   -3.9824    1.5982   -0.2168 C   0  0  0  0  0  0  0  0  0  0  0  0
   -3.7165    2.5513    0.7485 F   0  0  0  0  0  0  0  0  0  0  0  0
   -5.2466    1.0776   -0.0000 F   0  0  0  0  0  0  0  0  0  0  0  0
   -3.9722    2.2023   -1.4622 F   0  0  0  0  0  0  0  0  0  0  0  0
   -1.7170    0.6598   -0.8227 C   0  0  0  0  0  0  0  0  0  0  0  0
   -0.7080   -0.3184   -0.7322 C   0  0  0  0  0  0  0  0  0  0  0  0
    0.5844   -0.0777   -1.4878 C   0  0  0  0  0  0  0  0  0  0  0  0
    1.7050    0.3625   -0.5787 C   0  0  0  0  0  0  0  0  0  0  0  0
    1.5394    1.4621    0.2831 C   0  0  0  0  0  0  0  0  0  0  0  0
    2.5923    1.8829    1.1010 C   0  0  0  0  0  0  0  0  0  0  0  0
    3.8226    1.2226    1.0547 C   0  0  0  0  0  0  0  0  0  0  0  0
    4.0046    0.1448    0.1847 C   0  0  0  0  0  0  0  0  0  0  0  0
    2.9547   -0.2795   -0.6355 C   0  0  0  0  0  0  0  0  0  0  0  0
   -2.3198   -2.4269    1.4310 H   0  0  0  0  0  0  0  0  0  0  0  0
   -4.0397   -0.7208    1.2468 H   0  0  0  0  0  0  0  0  0  0  0  0
   -1.5475    1.5481   -1.4198 H   0  0  0  0  0  0  0  0  0  0  0  0
    0.8591   -0.9853   -2.0603 H   0  0  0  0  0  0  0  0  0  0  0  0
    0.4447    0.7112   -2.2586 H   0  0  0  0  0  0  0  0  0  0  0  0
    0.5971    1.9935    0.3226 H   0  0  0  0  0  0  0  0  0  0  0  0
    2.4555    2.7243    1.7680 H   0  0  0  0  0  0  0  0  0  0  0  0
    4.6368    1.5503    1.6880 H   0  0  0  0  0  0  0  0  0  0  0  0
    4.9607   -0.3608    0.1436 H   0  0  0  0  0  0  0  0  0  0  0  0
    3.1147   -1.1135   -1.3074 H   0  0  0  0  0  0  0  0  0  0  0  0
  1  2  1  0
  2  3  2  0
  2  4  2  0
  2  5  1  0
  5  6  1  0
  6  7  2  0
  7  8  1  0
  8  9  1  0
  9 10  1  0
  9 11  1  0
  9 12  1  0
  8 13  2  0
 13 14  1  0
 14 15  1  0
 15 16  1  0
 16 17  2  0
 17 18  1  0
 18 19  2  0
 19 20  1  0
 20 21  2  0
 14  5  2  0
 21 16  1  0
  6 22  1  0
  7 23  1  0
 13 24  1  0
 15 25  1  0
 15 26  1  0
 17 27  1  0
 18 28  1  0
 19 29  1  0
 20 30  1  0
 21 31  1  0
M  RAD  1   1   3
M  END
$$$$
