
     RDKit          3D

 31 32  0  0  0  0  0  0  0  0999 V2000
    1.2311   -4.0863    0.2921 N   0  0  0  0  0  1  0  0  0  0  0  0
    0.3041   -2.7267   -0.2376 S   0  0  0  0  0  0  0  0  0  0  0  0
   -0.0121   -2.9234   -1.6929 O   0  0  0  0  0  0  0  0  0  0  0  0
   -0.9688   -2.6796    0.5581 O   0  0  0  0  0  0  0  0  0  0  0  0
    1.2179   -1.2253    0.0076 C   0  0  0  0  0  0  0  0  0  0  0  0
    2.3721   -1.2781    0.8048 C   0  0  0  0  0  0  0  0  0  0  0  0
    3.1268   -0.1324    1.0527 C   0  0  0  0  0  0  0  0  0  0  0  0
    2.7533    1.0981    0.4987 C   0  0  0  0  0  0  0  0  0  0  0  0
    3.5372    2.3484    0.8118 C   0  0  0  0  0  0  0  0  0  0  0  0
    3.4810    3.2363   -0.2487 F   0  0  0  0  0  0  0  0  0  0  0  0
    3.0013    2.9522    1.9339 F   0  0  0  0  0  0  0  0  0  0  0  0
    4.8668    2.0481    1.0531 F   0  0  0  0  0  0  0  0  0  0  0  0
    1.5821    1.1704   -0.2698 C   0  0  0  0  0  0  0  0  0  0  0  0
    0.8097    0.0232   -0.5354 C   0  0  0  0  0  0  0  0  0  0  0  0
   -0.4481    0.1906   -1.3656 C   0  0  0  0  0  0  0  0  0  0  0  0
   -1.6987    0.1554   -0.5224 C   0  0  0  0  0  0  0  0  0  0  0  0
   -1.8399    1.0090    0.5870 C   0  0  0  0  0  0  0  0  0  0  0  0
   -3.0140    0.9920    1.3459 C   0  0  0  0  0  0  0  0  0  0  0  0
   -4.0623    0.1374    0.9959 C   0  0  0  0  0  0  0  0  0  0  0  0
   -3.9412   -0.6966   -0.1184 C   0  0  0  0  0  0  0  0  0  0  0  0
   -2.7691   -0.6830   -0.8806 C   0  0  0  0  0  0  0  0  0  0  0  0
    2.6918   -2.2092    1.2527 H   0  0  0  0  0  0  0  0  0  0  0  0
    4.0020   -0.2096    1.6857 H   0  0  0  0  0  0  0  0  0  0  0  0
    1.2631    2.1306   -0.6577 H   0  0  0  0  0  0  0  0  0  0  0  0
   -0.4323    1.1616   -1.9066 H   0  0  0  0  0  0  0  0  0  0  0  0
   -0.4755   -0.5764   -2.1643 H   0  0  0  0  0  0  0  0  0  0  0  0
   -1.0430    1.6868    0.8650 H   0  0  0  0  0  0  0  0  0  0  0  0
   -3.1128    1.6451    2.2033 H   0  0  0  0  0  0  0  0  0  0  0  0
   -4.9707    0.1262    1.5840 H   0  0  0  0  0  0  0  0  0  0  0  0
   -4.7572   -1.3524   -0.3935 H   0  0  0  0  0  0  0  0  0  0  0  0
   -2.6943   -1.3324   -1.7439 H   0  0  0  0  0  0  0  0  0  0  0  0
  1  2  1  0
  2  3  2  0
  2  4  2  0
  2  5  1  0
  5  6  1  0
  6  7  2  0
  7  8  1  0
  8  9  1  0
  9 10  1  0
  9 11  1  0
  9 12  1  0
  8 13  2  0
 13 14  1  0
 14 15  1  0
 15 16  1  0
 16 17  2  0
 17 18  1  0
 18 19  2  0
 19 20  1  0
 20 21  2  0
 14  5  2  0
 21 16  1  0
  6 22  1  0
  7 23  1  0
 13 24  1  0
 15 25  1  0
 15 26  1  0
 17 27  1  0
 18 28  1  0
 19 29  1  0
 20 30  1  0
 21 31  1  0
M  RAD  1   1   3
M  END
$$$$
