
     RDKit          3D

 31 32  0  0  0  0  0  0  0  0999 V2000
   -1.2780   -3.5824   -1.9405 N   0  0  0  0  0  1  0  0  0  0  0  0
   -0.3389   -2.6128   -0.8607 S   0  0  0  0  0  0  0  0  0  0  0  0
    0.9401   -2.2344   -1.5511 O   0  0  0  0  0  0  0  0  0  0  0  0
   -0.0355   -3.4400    0.3559 O   0  0  0  0  0  0  0  0  0  0  0  0
   -1.2332   -1.1464   -0.4141 C   0  0  0  0  0  0  0  0  0  0  0  0
   -2.3823   -0.8237   -1.1530 C   0  0  0  0  0  0  0  0  0  0  0  0
   -3.1217    0.3230   -0.8667 C   0  0  0  0  0  0  0  0  0  0  0  0
   -2.7377    1.1741    0.1768 C   0  0  0  0  0  0  0  0  0  0  0  0
   -3.5046    2.4439    0.4511 C   0  0  0  0  0  0  0  0  0  0  0  0
   -3.4450    2.7676    1.7956 F   0  0  0  0  0  0  0  0  0  0  0  0
   -4.8360    2.3000    0.1005 F   0  0  0  0  0  0  0  0  0  0  0  0
   -2.9540    3.4758   -0.2856 F   0  0  0  0  0  0  0  0  0  0  0  0
   -1.5711    0.8813    0.8986 C   0  0  0  0  0  0  0  0  0  0  0  0
   -0.8142   -0.2749    0.6276 C   0  0  0  0  0  0  0  0  0  0  0  0
    0.4396   -0.5111    1.4470 C   0  0  0  0  0  0  0  0  0  0  0  0
    1.6956   -0.1848    0.6775 C   0  0  0  0  0  0  0  0  0  0  0  0
    1.8546    1.0709    0.0633 C   0  0  0  0  0  0  0  0  0  0  0  0
    3.0337    1.3770   -0.6228 C   0  0  0  0  0  0  0  0  0  0  0  0
    4.0694    0.4416   -0.6880 C   0  0  0  0  0  0  0  0  0  0  0  0
    3.9308   -0.7990   -0.0608 C   0  0  0  0  0  0  0  0  0  0  0  0
    2.7536   -1.1096    0.6268 C   0  0  0  0  0  0  0  0  0  0  0  0
   -2.7098   -1.4543   -1.9683 H   0  0  0  0  0  0  0  0  0  0  0  0
   -3.9933    0.5472   -1.4690 H   0  0  0  0  0  0  0  0  0  0  0  0
   -1.2436    1.5647    1.6732 H   0  0  0  0  0  0  0  0  0  0  0  0
    0.4524   -1.5534    1.8216 H   0  0  0  0  0  0  0  0  0  0  0  0
    0.4314    0.1185    2.3632 H   0  0  0  0  0  0  0  0  0  0  0  0
    1.0676    1.8124    0.1147 H   0  0  0  0  0  0  0  0  0  0  0  0
    3.1462    2.3417   -1.1003 H   0  0  0  0  0  0  0  0  0  0  0  0
    4.9818    0.6807   -1.2188 H   0  0  0  0  0  0  0  0  0  0  0  0
    4.7370   -1.5197   -0.1050 H   0  0  0  0  0  0  0  0  0  0  0  0
    2.6651   -2.0740    1.1113 H   0  0  0  0  0  0  0  0  0  0  0  0
  1  2  1  0
  2  3  2  0
  2  4  2  0
  2  5  1  0
  5  6  1  0
  6  7  2  0
  7  8  1  0
  8  9  1  0
  9 10  1  0
  9 11  1  0
  9 12  1  0
  8 13  2  0
 13 14  1  0
 14 15  1  0
 15 16  1  0
 16 17  2  0
 17 18  1  0
 18 19  2  0
 19 20  1  0
 20 21  2  0
 14  5  2  0
 21 16  1  0
  6 22  1  0
  7 23  1  0
 13 24  1  0
 15 25  1  0
 15 26  1  0
 17 27  1  0
 18 28  1  0
 19 29  1  0
 20 30  1  0
 21 31  1  0
M  RAD  1   1   3
M  END
$$$$
