
     RDKit          3D

 31 32  0  0  0  0  0  0  0  0999 V2000
    0.1253   -1.6643   -3.3251 N   0  0  0  0  0  1  0  0  0  0  0  0
    1.4305   -2.1756   -2.3158 S   0  0  0  0  0  0  0  0  0  0  0  0
    1.1347   -3.5366   -1.7514 O   0  0  0  0  0  0  0  0  0  0  0  0
    2.6742   -2.2681   -3.1550 O   0  0  0  0  0  0  0  0  0  0  0  0
    1.6643   -1.0192   -0.9918 C   0  0  0  0  0  0  0  0  0  0  0  0
    2.8796   -0.3191   -0.9297 C   0  0  0  0  0  0  0  0  0  0  0  0
    3.1450    0.5661    0.1144 C   0  0  0  0  0  0  0  0  0  0  0  0
    2.2115    0.7534    1.1415 C   0  0  0  0  0  0  0  0  0  0  0  0
    2.4814    1.7374    2.2526 C   0  0  0  0  0  0  0  0  0  0  0  0
    1.9833    2.9759    1.8940 F   0  0  0  0  0  0  0  0  0  0  0  0
    3.8403    1.8499    2.4912 F   0  0  0  0  0  0  0  0  0  0  0  0
    1.8699    1.3274    3.4249 F   0  0  0  0  0  0  0  0  0  0  0  0
    0.9807    0.0843    1.0719 C   0  0  0  0  0  0  0  0  0  0  0  0
    0.6835   -0.7936    0.0113 C   0  0  0  0  0  0  0  0  0  0  0  0
   -0.6740   -1.4698    0.0123 C   0  0  0  0  0  0  0  0  0  0  0  0
   -1.7893   -0.4539   -0.0081 C   0  0  0  0  0  0  0  0  0  0  0  0
   -2.0134    0.3280   -1.1541 C   0  0  0  0  0  0  0  0  0  0  0  0
   -3.0370    1.2803   -1.1693 C   0  0  0  0  0  0  0  0  0  0  0  0
   -3.8424    1.4610   -0.0418 C   0  0  0  0  0  0  0  0  0  0  0  0
   -3.6244    0.6907    1.1035 C   0  0  0  0  0  0  0  0  0  0  0  0
   -2.6018   -0.2629    1.1231 C   0  0  0  0  0  0  0  0  0  0  0  0
    3.6348   -0.4560   -1.6923 H   0  0  0  0  0  0  0  0  0  0  0  0
    4.0872    1.0996    0.1210 H   0  0  0  0  0  0  0  0  0  0  0  0
    0.2407    0.2529    1.8452 H   0  0  0  0  0  0  0  0  0  0  0  0
   -0.8204   -2.1479   -0.8482 H   0  0  0  0  0  0  0  0  0  0  0  0
   -0.7448   -2.1100    0.9184 H   0  0  0  0  0  0  0  0  0  0  0  0
   -1.3922    0.2050   -2.0312 H   0  0  0  0  0  0  0  0  0  0  0  0
   -3.2042    1.8800   -2.0546 H   0  0  0  0  0  0  0  0  0  0  0  0
   -4.6337    2.1993   -0.0549 H   0  0  0  0  0  0  0  0  0  0  0  0
   -4.2469    0.8337    1.9773 H   0  0  0  0  0  0  0  0  0  0  0  0
   -2.4423   -0.8478    2.0204 H   0  0  0  0  0  0  0  0  0  0  0  0
  1  2  1  0
  2  3  2  0
  2  4  2  0
  2  5  1  0
  5  6  1  0
  6  7  2  0
  7  8  1  0
  8  9  1  0
  9 10  1  0
  9 11  1  0
  9 12  1  0
  8 13  2  0
 13 14  1  0
 14 15  1  0
 15 16  1  0
 16 17  2  0
 17 18  1  0
 18 19  2  0
 19 20  1  0
 20 21  2  0
 14  5  2  0
 21 16  1  0
  6 22  1  0
  7 23  1  0
 13 24  1  0
 15 25  1  0
 15 26  1  0
 17 27  1  0
 18 28  1  0
 19 29  1  0
 20 30  1  0
 21 31  1  0
M  RAD  1   1   3
M  END
$$$$
