
     RDKit          3D

 31 32  0  0  0  0  0  0  0  0999 V2000
    0.2347    3.6854    0.4523 N   0  0  0  0  0  1  0  0  0  0  0  0
   -1.1236    3.2565   -0.5247 S   0  0  0  0  0  0  0  0  0  0  0  0
   -0.8097    3.5095   -1.9725 O   0  0  0  0  0  0  0  0  0  0  0  0
   -2.2868    4.1234   -0.1312 O   0  0  0  0  0  0  0  0  0  0  0  0
   -1.5236    1.5445   -0.2920 C   0  0  0  0  0  0  0  0  0  0  0  0
   -2.7727    1.2250    0.2636 C   0  0  0  0  0  0  0  0  0  0  0  0
   -3.1675   -0.1024    0.4254 C   0  0  0  0  0  0  0  0  0  0  0  0
   -2.3334   -1.1474    0.0086 C   0  0  0  0  0  0  0  0  0  0  0  0
   -2.7431   -2.5844    0.2156 C   0  0  0  0  0  0  0  0  0  0  0  0
   -4.1211   -2.7127    0.1847 F   0  0  0  0  0  0  0  0  0  0  0  0
   -2.2781   -3.0173    1.4432 F   0  0  0  0  0  0  0  0  0  0  0  0
   -2.2123   -3.3896   -0.7774 F   0  0  0  0  0  0  0  0  0  0  0  0
   -1.0698   -0.8403   -0.5171 C   0  0  0  0  0  0  0  0  0  0  0  0
   -0.6424    0.4938   -0.6639 C   0  0  0  0  0  0  0  0  0  0  0  0
    0.7419    0.7341   -1.2351 C   0  0  0  0  0  0  0  0  0  0  0  0
    1.8038    0.0836   -0.3834 C   0  0  0  0  0  0  0  0  0  0  0  0
    2.0843    0.5814    0.9005 C   0  0  0  0  0  0  0  0  0  0  0  0
    3.0577   -0.0294    1.6969 C   0  0  0  0  0  0  0  0  0  0  0  0
    3.7562   -1.1416    1.2198 C   0  0  0  0  0  0  0  0  0  0  0  0
    3.4813   -1.6459   -0.0540 C   0  0  0  0  0  0  0  0  0  0  0  0
    2.5086   -1.0381   -0.8540 C   0  0  0  0  0  0  0  0  0  0  0  0
   -3.4539    2.0057    0.5752 H   0  0  0  0  0  0  0  0  0  0  0  0
   -4.1320   -0.3106    0.8713 H   0  0  0  0  0  0  0  0  0  0  0  0
   -0.4061   -1.6458   -0.8082 H   0  0  0  0  0  0  0  0  0  0  0  0
    0.7680    0.3286   -2.2699 H   0  0  0  0  0  0  0  0  0  0  0  0
    0.9927    1.8067   -1.3252 H   0  0  0  0  0  0  0  0  0  0  0  0
    1.5453    1.4364    1.2863 H   0  0  0  0  0  0  0  0  0  0  0  0
    3.2687    0.3582    2.6852 H   0  0  0  0  0  0  0  0  0  0  0  0
    4.5087   -1.6139    1.8379 H   0  0  0  0  0  0  0  0  0  0  0  0
    4.0208   -2.5093   -0.4213 H   0  0  0  0  0  0  0  0  0  0  0  0
    2.3035   -1.4444   -1.8366 H   0  0  0  0  0  0  0  0  0  0  0  0
  1  2  1  0
  2  3  2  0
  2  4  2  0
  2  5  1  0
  5  6  1  0
  6  7  2  0
  7  8  1  0
  8  9  1  0
  9 10  1  0
  9 11  1  0
  9 12  1  0
  8 13  2  0
 13 14  1  0
 14 15  1  0
 15 16  1  0
 16 17  2  0
 17 18  1  0
 18 19  2  0
 19 20  1  0
 20 21  2  0
 14  5  2  0
 21 16  1  0
  6 22  1  0
  7 23  1  0
 13 24  1  0
 15 25  1  0
 15 26  1  0
 17 27  1  0
 18 28  1  0
 19 29  1  0
 20 30  1  0
 21 31  1  0
M  RAD  1   1   3
M  END
$$$$
