
     RDKit          3D

 31 32  0  0  0  0  0  0  0  0999 V2000
   -0.5536    3.7728    1.9856 N   0  0  0  0  0  1  0  0  0  0  0  0
    0.1624    2.6393    0.8944 S   0  0  0  0  0  0  0  0  0  0  0  0
    1.3733    2.0438    1.5537 O   0  0  0  0  0  0  0  0  0  0  0  0
    0.5718    3.3863   -0.3429 O   0  0  0  0  0  0  0  0  0  0  0  0
   -0.9940    1.3534    0.4960 C   0  0  0  0  0  0  0  0  0  0  0  0
   -2.1590    1.2501    1.2723 C   0  0  0  0  0  0  0  0  0  0  0  0
   -3.1007    0.2523    1.0248 C   0  0  0  0  0  0  0  0  0  0  0  0
   -2.9082   -0.6642   -0.0161 C   0  0  0  0  0  0  0  0  0  0  0  0
   -3.8987   -1.7779   -0.2490 C   0  0  0  0  0  0  0  0  0  0  0  0
   -3.9401   -2.1199   -1.5897 F   0  0  0  0  0  0  0  0  0  0  0  0
   -5.1711   -1.3936    0.1378 F   0  0  0  0  0  0  0  0  0  0  0  0
   -3.5195   -2.8849    0.4869 F   0  0  0  0  0  0  0  0  0  0  0  0
   -1.7309   -0.5932   -0.7755 C   0  0  0  0  0  0  0  0  0  0  0  0
   -0.7706    0.4106   -0.5439 C   0  0  0  0  0  0  0  0  0  0  0  0
    0.4793    0.4092   -1.4023 C   0  0  0  0  0  0  0  0  0  0  0  0
    1.6795   -0.1299   -0.6641 C   0  0  0  0  0  0  0  0  0  0  0  0
    1.6294   -1.3875   -0.0355 C   0  0  0  0  0  0  0  0  0  0  0  0
    2.7551   -1.8938    0.6212 C   0  0  0  0  0  0  0  0  0  0  0  0
    3.9434   -1.1594    0.6424 C   0  0  0  0  0  0  0  0  0  0  0  0
    4.0103    0.0796    0.0003 C   0  0  0  0  0  0  0  0  0  0  0  0
    2.8873    0.5900   -0.6580 C   0  0  0  0  0  0  0  0  0  0  0  0
   -2.3425    1.9373    2.0870 H   0  0  0  0  0  0  0  0  0  0  0  0
   -3.9793    0.1946    1.6552 H   0  0  0  0  0  0  0  0  0  0  0  0
   -1.5555   -1.3319   -1.5486 H   0  0  0  0  0  0  0  0  0  0  0  0
    0.6673    1.4284   -1.7931 H   0  0  0  0  0  0  0  0  0  0  0  0
    0.3299   -0.2177   -2.3082 H   0  0  0  0  0  0  0  0  0  0  0  0
    0.7210   -1.9759   -0.0529 H   0  0  0  0  0  0  0  0  0  0  0  0
    2.7073   -2.8582    1.1102 H   0  0  0  0  0  0  0  0  0  0  0  0
    4.8140   -1.5533    1.1505 H   0  0  0  0  0  0  0  0  0  0  0  0
    4.9338    0.6440    0.0103 H   0  0  0  0  0  0  0  0  0  0  0  0
    2.9584    1.5496   -1.1546 H   0  0  0  0  0  0  0  0  0  0  0  0
  1  2  1  0
  2  3  2  0
  2  4  2  0
  2  5  1  0
  5  6  1  0
  6  7  2  0
  7  8  1  0
  8  9  1  0
  9 10  1  0
  9 11  1  0
  9 12  1  0
  8 13  2  0
 13 14  1  0
 14 15  1  0
 15 16  1  0
 16 17  2  0
 17 18  1  0
 18 19  2  0
 19 20  1  0
 20 21  2  0
 14  5  2  0
 21 16  1  0
  6 22  1  0
  7 23  1  0
 13 24  1  0
 15 25  1  0
 15 26  1  0
 17 27  1  0
 18 28  1  0
 19 29  1  0
 20 30  1  0
 21 31  1  0
M  RAD  1   1   3
M  END
$$$$
