
     RDKit          3D

 31 32  0  0  0  0  0  0  0  0999 V2000
   -1.5492   -3.7661   -1.2837 N   0  0  0  0  0  1  0  0  0  0  0  0
   -0.5877   -2.6878   -0.3346 S   0  0  0  0  0  0  0  0  0  0  0  0
   -0.4870   -3.2585    1.0512 O   0  0  0  0  0  0  0  0  0  0  0  0
    0.7794   -2.6020   -0.9506 O   0  0  0  0  0  0  0  0  0  0  0  0
   -1.3276   -1.0752   -0.2958 C   0  0  0  0  0  0  0  0  0  0  0  0
   -2.3652   -0.8034   -1.2015 C   0  0  0  0  0  0  0  0  0  0  0  0
   -2.9784    0.4481   -1.2365 C   0  0  0  0  0  0  0  0  0  0  0  0
   -2.5776    1.4607   -0.3564 C   0  0  0  0  0  0  0  0  0  0  0  0
   -3.2019    2.8320   -0.4313 C   0  0  0  0  0  0  0  0  0  0  0  0
   -3.2116    3.4311    0.8165 F   0  0  0  0  0  0  0  0  0  0  0  0
   -2.4708    3.6175   -1.3026 F   0  0  0  0  0  0  0  0  0  0  0  0
   -4.5083    2.7539   -0.8826 F   0  0  0  0  0  0  0  0  0  0  0  0
   -1.5178    1.2125    0.5283 C   0  0  0  0  0  0  0  0  0  0  0  0
   -0.8896   -0.0468    0.5820 C   0  0  0  0  0  0  0  0  0  0  0  0
    0.2557   -0.2279    1.5591 C   0  0  0  0  0  0  0  0  0  0  0  0
    1.6000   -0.2077    0.8747 C   0  0  0  0  0  0  0  0  0  0  0  0
    1.9612    0.8617    0.0349 C   0  0  0  0  0  0  0  0  0  0  0  0
    3.2203    0.8884   -0.5723 C   0  0  0  0  0  0  0  0  0  0  0  0
    4.1348   -0.1407   -0.3345 C   0  0  0  0  0  0  0  0  0  0  0  0
    3.7946   -1.1947    0.5170 C   0  0  0  0  0  0  0  0  0  0  0  0
    2.5367   -1.2256    1.1267 C   0  0  0  0  0  0  0  0  0  0  0  0
   -2.7012   -1.5584   -1.8991 H   0  0  0  0  0  0  0  0  0  0  0  0
   -3.7645    0.6252   -1.9599 H   0  0  0  0  0  0  0  0  0  0  0  0
   -1.1720    2.0099    1.1755 H   0  0  0  0  0  0  0  0  0  0  0  0
    0.1099   -1.1599    2.1397 H   0  0  0  0  0  0  0  0  0  0  0  0
    0.2515    0.5827    2.3200 H   0  0  0  0  0  0  0  0  0  0  0  0
    1.2700    1.6739   -0.1503 H   0  0  0  0  0  0  0  0  0  0  0  0
    3.4887    1.7098   -1.2240 H   0  0  0  0  0  0  0  0  0  0  0  0
    5.1094   -0.1179   -0.8047 H   0  0  0  0  0  0  0  0  0  0  0  0
    4.5068   -1.9872    0.7069 H   0  0  0  0  0  0  0  0  0  0  0  0
    2.2915   -2.0476    1.7877 H   0  0  0  0  0  0  0  0  0  0  0  0
  1  2  1  0
  2  3  2  0
  2  4  2  0
  2  5  1  0
  5  6  1  0
  6  7  2  0
  7  8  1  0
  8  9  1  0
  9 10  1  0
  9 11  1  0
  9 12  1  0
  8 13  2  0
 13 14  1  0
 14 15  1  0
 15 16  1  0
 16 17  2  0
 17 18  1  0
 18 19  2  0
 19 20  1  0
 20 21  2  0
 14  5  2  0
 21 16  1  0
  6 22  1  0
  7 23  1  0
 13 24  1  0
 15 25  1  0
 15 26  1  0
 17 27  1  0
 18 28  1  0
 19 29  1  0
 20 30  1  0
 21 31  1  0
M  RAD  1   1   3
M  END
$$$$
