
     RDKit          3D

 31 32  0  0  0  0  0  0  0  0999 V2000
    0.0308    3.2152    1.8736 N   0  0  0  0  0  1  0  0  0  0  0  0
   -1.4537    2.9966    1.0179 S   0  0  0  0  0  0  0  0  0  0  0  0
   -2.5819    3.4620    1.8956 O   0  0  0  0  0  0  0  0  0  0  0  0
   -1.4480    3.8297   -0.2329 O   0  0  0  0  0  0  0  0  0  0  0  0
   -1.6651    1.2875    0.5948 C   0  0  0  0  0  0  0  0  0  0  0  0
   -2.7711    0.6049    1.1260 C   0  0  0  0  0  0  0  0  0  0  0  0
   -3.0176   -0.7275    0.7973 C   0  0  0  0  0  0  0  0  0  0  0  0
   -2.1575   -1.4172   -0.0662 C   0  0  0  0  0  0  0  0  0  0  0  0
   -2.4560   -2.8395   -0.4707 C   0  0  0  0  0  0  0  0  0  0  0  0
   -3.2265   -2.8338   -1.6183 F   0  0  0  0  0  0  0  0  0  0  0  0
   -3.1445   -3.5017    0.5312 F   0  0  0  0  0  0  0  0  0  0  0  0
   -1.2829   -3.5314   -0.7181 F   0  0  0  0  0  0  0  0  0  0  0  0
   -1.0648   -0.7370   -0.6237 C   0  0  0  0  0  0  0  0  0  0  0  0
   -0.7841    0.6006   -0.2834 C   0  0  0  0  0  0  0  0  0  0  0  0
    0.4362    1.2482   -0.9093 C   0  0  0  0  0  0  0  0  0  0  0  0
    1.6936    0.4891   -0.5642 C   0  0  0  0  0  0  0  0  0  0  0  0
    2.1871    0.4988    0.7514 C   0  0  0  0  0  0  0  0  0  0  0  0
    3.3435   -0.2169    1.0763 C   0  0  0  0  0  0  0  0  0  0  0  0
    4.0140   -0.9486    0.0927 C   0  0  0  0  0  0  0  0  0  0  0  0
    3.5282   -0.9672   -1.2174 C   0  0  0  0  0  0  0  0  0  0  0  0
    2.3721   -0.2529   -1.5468 C   0  0  0  0  0  0  0  0  0  0  0  0
   -3.4605    1.1058    1.7927 H   0  0  0  0  0  0  0  0  0  0  0  0
   -3.8902   -1.2158    1.2128 H   0  0  0  0  0  0  0  0  0  0  0  0
   -0.4214   -1.2526   -1.3268 H   0  0  0  0  0  0  0  0  0  0  0  0
    0.5792    2.2977   -0.5934 H   0  0  0  0  0  0  0  0  0  0  0  0
    0.2887    1.2804   -2.0107 H   0  0  0  0  0  0  0  0  0  0  0  0
    1.6735    1.0537    1.5251 H   0  0  0  0  0  0  0  0  0  0  0  0
    3.7184   -0.2061    2.0916 H   0  0  0  0  0  0  0  0  0  0  0  0
    4.9084   -1.5029    0.3460 H   0  0  0  0  0  0  0  0  0  0  0  0
    4.0466   -1.5369   -1.9778 H   0  0  0  0  0  0  0  0  0  0  0  0
    2.0053   -0.2821   -2.5652 H   0  0  0  0  0  0  0  0  0  0  0  0
  1  2  1  0
  2  3  2  0
  2  4  2  0
  2  5  1  0
  5  6  1  0
  6  7  2  0
  7  8  1  0
  8  9  1  0
  9 10  1  0
  9 11  1  0
  9 12  1  0
  8 13  2  0
 13 14  1  0
 14 15  1  0
 15 16  1  0
 16 17  2  0
 17 18  1  0
 18 19  2  0
 19 20  1  0
 20 21  2  0
 14  5  2  0
 21 16  1  0
  6 22  1  0
  7 23  1  0
 13 24  1  0
 15 25  1  0
 15 26  1  0
 17 27  1  0
 18 28  1  0
 19 29  1  0
 20 30  1  0
 21 31  1  0
M  RAD  1   1   3
M  END
$$$$
