
     RDKit          3D

 31 32  0  0  0  0  0  0  0  0999 V2000
   -0.9714   -4.0503   -0.7992 N   0  0  0  0  0  1  0  0  0  0  0  0
   -0.1135   -2.7642   -0.0258 S   0  0  0  0  0  0  0  0  0  0  0  0
    1.1219   -2.4672   -0.8267 O   0  0  0  0  0  0  0  0  0  0  0  0
    0.2709   -3.2286    1.3500 O   0  0  0  0  0  0  0  0  0  0  0  0
   -1.1303   -1.3125    0.0642 C   0  0  0  0  0  0  0  0  0  0  0  0
   -2.3089   -1.2843   -0.6978 C   0  0  0  0  0  0  0  0  0  0  0  0
   -3.1445   -0.1683   -0.6871 C   0  0  0  0  0  0  0  0  0  0  0  0
   -2.8292    0.9479    0.0974 C   0  0  0  0  0  0  0  0  0  0  0  0
   -3.7031    2.1772    0.0665 C   0  0  0  0  0  0  0  0  0  0  0  0
   -5.0191    1.8389   -0.1979 F   0  0  0  0  0  0  0  0  0  0  0  0
   -3.2509    3.0318   -0.9214 F   0  0  0  0  0  0  0  0  0  0  0  0
   -3.6626    2.8338    1.2844 F   0  0  0  0  0  0  0  0  0  0  0  0
   -1.6361    0.9456    0.8349 C   0  0  0  0  0  0  0  0  0  0  0  0
   -0.7821   -0.1742    0.8408 C   0  0  0  0  0  0  0  0  0  0  0  0
    0.4938   -0.0900    1.6559 C   0  0  0  0  0  0  0  0  0  0  0  0
    1.7103    0.1346    0.7925 C   0  0  0  0  0  0  0  0  0  0  0  0
    1.7533    1.2029   -0.1220 C   0  0  0  0  0  0  0  0  0  0  0  0
    2.8957    1.4228   -0.8975 C   0  0  0  0  0  0  0  0  0  0  0  0
    4.0094    0.5912   -0.7560 C   0  0  0  0  0  0  0  0  0  0  0  0
    3.9854   -0.4575    0.1667 C   0  0  0  0  0  0  0  0  0  0  0  0
    2.8453   -0.6812    0.9446 C   0  0  0  0  0  0  0  0  0  0  0  0
   -2.5855   -2.1256   -1.3185 H   0  0  0  0  0  0  0  0  0  0  0  0
   -4.0368   -0.1773   -1.3004 H   0  0  0  0  0  0  0  0  0  0  0  0
   -1.3644    1.8275    1.4030 H   0  0  0  0  0  0  0  0  0  0  0  0
    0.6012   -0.9988    2.2799 H   0  0  0  0  0  0  0  0  0  0  0  0
    0.4368    0.7479    2.3844 H   0  0  0  0  0  0  0  0  0  0  0  0
    0.9045    1.8650   -0.2355 H   0  0  0  0  0  0  0  0  0  0  0  0
    2.9191    2.2413   -1.6053 H   0  0  0  0  0  0  0  0  0  0  0  0
    4.8932    0.7634   -1.3566 H   0  0  0  0  0  0  0  0  0  0  0  0
    4.8517   -1.0961    0.2814 H   0  0  0  0  0  0  0  0  0  0  0  0
    2.8458   -1.4956    1.6584 H   0  0  0  0  0  0  0  0  0  0  0  0
  1  2  1  0
  2  3  2  0
  2  4  2  0
  2  5  1  0
  5  6  1  0
  6  7  2  0
  7  8  1  0
  8  9  1  0
  9 10  1  0
  9 11  1  0
  9 12  1  0
  8 13  2  0
 13 14  1  0
 14 15  1  0
 15 16  1  0
 16 17  2  0
 17 18  1  0
 18 19  2  0
 19 20  1  0
 20 21  2  0
 14  5  2  0
 21 16  1  0
  6 22  1  0
  7 23  1  0
 13 24  1  0
 15 25  1  0
 15 26  1  0
 17 27  1  0
 18 28  1  0
 19 29  1  0
 20 30  1  0
 21 31  1  0
M  RAD  1   1   3
M  END
$$$$
