
     RDKit          3D

 31 32  0  0  0  0  0  0  0  0999 V2000
   -0.8630    3.8572    1.6152 N   0  0  0  0  0  1  0  0  0  0  0  0
   -0.0409    2.6985    0.6303 S   0  0  0  0  0  0  0  0  0  0  0  0
    0.3519    3.3783   -0.6503 O   0  0  0  0  0  0  0  0  0  0  0  0
    1.1884    2.2397    1.3611 O   0  0  0  0  0  0  0  0  0  0  0  0
   -1.0955    1.3090    0.3042 C   0  0  0  0  0  0  0  0  0  0  0  0
   -2.2724    1.1824    1.0588 C   0  0  0  0  0  0  0  0  0  0  0  0
   -3.1368    0.1057    0.8662 C   0  0  0  0  0  0  0  0  0  0  0  0
   -2.8529   -0.8699   -0.0973 C   0  0  0  0  0  0  0  0  0  0  0  0
   -3.7584   -2.0644   -0.2677 C   0  0  0  0  0  0  0  0  0  0  0  0
   -3.3260   -3.0844    0.5590 F   0  0  0  0  0  0  0  0  0  0  0  0
   -3.7383   -2.5071   -1.5790 F   0  0  0  0  0  0  0  0  0  0  0  0
   -5.0645   -1.7423    0.0591 F   0  0  0  0  0  0  0  0  0  0  0  0
   -1.6620   -0.7735   -0.8322 C   0  0  0  0  0  0  0  0  0  0  0  0
   -0.7791    0.3093   -0.6554 C   0  0  0  0  0  0  0  0  0  0  0  0
    0.4919    0.3315   -1.4820 C   0  0  0  0  0  0  0  0  0  0  0  0
    1.7045   -0.0660   -0.6772 C   0  0  0  0  0  0  0  0  0  0  0  0
    1.7221   -1.2738    0.0440 C   0  0  0  0  0  0  0  0  0  0  0  0
    2.8605   -1.6499    0.7633 C   0  0  0  0  0  0  0  0  0  0  0  0
    3.9950   -0.8347    0.7561 C   0  0  0  0  0  0  0  0  0  0  0  0
    3.9959    0.3547    0.0233 C   0  0  0  0  0  0  0  0  0  0  0  0
    2.8599    0.7350   -0.6979 C   0  0  0  0  0  0  0  0  0  0  0  0
   -2.5253    1.9138    1.8143 H   0  0  0  0  0  0  0  0  0  0  0  0
   -4.0270    0.0337    1.4785 H   0  0  0  0  0  0  0  0  0  0  0  0
   -1.4149   -1.5536   -1.5426 H   0  0  0  0  0  0  0  0  0  0  0  0
    0.6213    1.3295   -1.9448 H   0  0  0  0  0  0  0  0  0  0  0  0
    0.4112   -0.3699   -2.3407 H   0  0  0  0  0  0  0  0  0  0  0  0
    0.8566   -1.9239    0.0503 H   0  0  0  0  0  0  0  0  0  0  0  0
    2.8644   -2.5763    1.3230 H   0  0  0  0  0  0  0  0  0  0  0  0
    4.8756   -1.1280    1.3128 H   0  0  0  0  0  0  0  0  0  0  0  0
    4.8782    0.9814    0.0117 H   0  0  0  0  0  0  0  0  0  0  0  0
    2.8798    1.6577   -1.2643 H   0  0  0  0  0  0  0  0  0  0  0  0
  1  2  1  0
  2  3  2  0
  2  4  2  0
  2  5  1  0
  5  6  1  0
  6  7  2  0
  7  8  1  0
  8  9  1  0
  9 10  1  0
  9 11  1  0
  9 12  1  0
  8 13  2  0
 13 14  1  0
 14 15  1  0
 15 16  1  0
 16 17  2  0
 17 18  1  0
 18 19  2  0
 19 20  1  0
 20 21  2  0
 14  5  2  0
 21 16  1  0
  6 22  1  0
  7 23  1  0
 13 24  1  0
 15 25  1  0
 15 26  1  0
 17 27  1  0
 18 28  1  0
 19 29  1  0
 20 30  1  0
 21 31  1  0
M  RAD  1   1   3
M  END
$$$$
