
     RDKit          3D

 31 32  0  0  0  0  0  0  0  0999 V2000
    1.0561   -3.9326    1.2789 N   0  0  0  0  0  1  0  0  0  0  0  0
    0.1220   -2.7289    0.4622 S   0  0  0  0  0  0  0  0  0  0  0  0
   -1.0160   -2.3233    1.3545 O   0  0  0  0  0  0  0  0  0  0  0  0
   -0.4141   -3.3402   -0.8008 O   0  0  0  0  0  0  0  0  0  0  0  0
    1.1274   -1.3133    0.0955 C   0  0  0  0  0  0  0  0  0  0  0  0
    2.3833   -1.2176    0.7152 C   0  0  0  0  0  0  0  0  0  0  0  0
    3.2162   -0.1236    0.4851 C   0  0  0  0  0  0  0  0  0  0  0  0
    2.8197    0.9013   -0.3827 C   0  0  0  0  0  0  0  0  0  0  0  0
    3.6957    2.1120   -0.5888 C   0  0  0  0  0  0  0  0  0  0  0  0
    3.5227    2.6267   -1.8621 F   0  0  0  0  0  0  0  0  0  0  0  0
    3.3587    3.0804    0.3383 F   0  0  0  0  0  0  0  0  0  0  0  0
    5.0318    1.7848   -0.4335 F   0  0  0  0  0  0  0  0  0  0  0  0
    1.5522    0.8344   -0.9796 C   0  0  0  0  0  0  0  0  0  0  0  0
    0.6990   -0.2650   -0.7634 C   0  0  0  0  0  0  0  0  0  0  0  0
   -0.6590   -0.2534   -1.4378 C   0  0  0  0  0  0  0  0  0  0  0  0
   -1.7716    0.0872   -0.4775 C   0  0  0  0  0  0  0  0  0  0  0  0
   -2.9192   -0.7225   -0.4097 C   0  0  0  0  0  0  0  0  0  0  0  0
   -3.9652   -0.3937    0.4579 C   0  0  0  0  0  0  0  0  0  0  0  0
   -3.8832    0.7531    1.2515 C   0  0  0  0  0  0  0  0  0  0  0  0
   -2.7580    1.5775    1.1737 C   0  0  0  0  0  0  0  0  0  0  0  0
   -1.7094    1.2528    0.3078 C   0  0  0  0  0  0  0  0  0  0  0  0
    2.7242   -1.9874    1.3941 H   0  0  0  0  0  0  0  0  0  0  0  0
    4.1711   -0.0772    0.9937 H   0  0  0  0  0  0  0  0  0  0  0  0
    1.2221    1.6504   -1.6117 H   0  0  0  0  0  0  0  0  0  0  0  0
   -0.8380   -1.2253   -1.9380 H   0  0  0  0  0  0  0  0  0  0  0  0
   -0.6804    0.4954   -2.2593 H   0  0  0  0  0  0  0  0  0  0  0  0
   -3.0016   -1.6124   -1.0212 H   0  0  0  0  0  0  0  0  0  0  0  0
   -4.8410   -1.0273    0.5129 H   0  0  0  0  0  0  0  0  0  0  0  0
   -4.6944    1.0065    1.9217 H   0  0  0  0  0  0  0  0  0  0  0  0
   -2.7001    2.4713    1.7814 H   0  0  0  0  0  0  0  0  0  0  0  0
   -0.8510    1.9098    0.2508 H   0  0  0  0  0  0  0  0  0  0  0  0
  1  2  1  0
  2  3  2  0
  2  4  2  0
  2  5  1  0
  5  6  1  0
  6  7  2  0
  7  8  1  0
  8  9  1  0
  9 10  1  0
  9 11  1  0
  9 12  1  0
  8 13  2  0
 13 14  1  0
 14 15  1  0
 15 16  1  0
 16 17  2  0
 17 18  1  0
 18 19  2  0
 19 20  1  0
 20 21  2  0
 14  5  2  0
 21 16  1  0
  6 22  1  0
  7 23  1  0
 13 24  1  0
 15 25  1  0
 15 26  1  0
 17 27  1  0
 18 28  1  0
 19 29  1  0
 20 30  1  0
 21 31  1  0
M  RAD  1   1   3
M  END
$$$$
