
     RDKit          3D

 31 32  0  0  0  0  0  0  0  0999 V2000
   -0.6345    4.2224    0.0820 N   0  0  0  0  0  1  0  0  0  0  0  0
    0.0640    2.7223    0.5822 S   0  0  0  0  0  0  0  0  0  0  0  0
    1.3558    2.5284   -0.1590 O   0  0  0  0  0  0  0  0  0  0  0  0
    0.3313    2.8079    2.0578 O   0  0  0  0  0  0  0  0  0  0  0  0
   -1.0388    1.3794    0.2220 C   0  0  0  0  0  0  0  0  0  0  0  0
   -2.1327    1.6317   -0.6208 C   0  0  0  0  0  0  0  0  0  0  0  0
   -3.0279    0.6178   -0.9587 C   0  0  0  0  0  0  0  0  0  0  0  0
   -2.8599   -0.6766   -0.4518 C   0  0  0  0  0  0  0  0  0  0  0  0
   -3.7954   -1.7869   -0.8613 C   0  0  0  0  0  0  0  0  0  0  0  0
   -3.2943   -2.4114   -1.9881 F   0  0  0  0  0  0  0  0  0  0  0  0
   -3.9181   -2.7192    0.1544 F   0  0  0  0  0  0  0  0  0  0  0  0
   -5.0556   -1.2890   -1.1446 F   0  0  0  0  0  0  0  0  0  0  0  0
   -1.7505   -0.9493    0.3622 C   0  0  0  0  0  0  0  0  0  0  0  0
   -0.8384    0.0627    0.7186 C   0  0  0  0  0  0  0  0  0  0  0  0
    0.3400   -0.3191    1.5931 C   0  0  0  0  0  0  0  0  0  0  0  0
    1.6238   -0.4265    0.8078 C   0  0  0  0  0  0  0  0  0  0  0  0
    1.6987   -1.2420   -0.3361 C   0  0  0  0  0  0  0  0  0  0  0  0
    2.9000   -1.3601   -1.0415 C   0  0  0  0  0  0  0  0  0  0  0  0
    4.0394   -0.6805   -0.6036 C   0  0  0  0  0  0  0  0  0  0  0  0
    3.9814    0.1127    0.5450 C   0  0  0  0  0  0  0  0  0  0  0  0
    2.7823    0.2336    1.2540 C   0  0  0  0  0  0  0  0  0  0  0  0
   -2.2951    2.6177   -1.0346 H   0  0  0  0  0  0  0  0  0  0  0  0
   -3.8506    0.8471   -1.6244 H   0  0  0  0  0  0  0  0  0  0  0  0
   -1.5899   -1.9613    0.7147 H   0  0  0  0  0  0  0  0  0  0  0  0
    0.4351    0.4003    2.4299 H   0  0  0  0  0  0  0  0  0  0  0  0
    0.1604   -1.3007    2.0832 H   0  0  0  0  0  0  0  0  0  0  0  0
    0.8291   -1.7859   -0.6823 H   0  0  0  0  0  0  0  0  0  0  0  0
    2.9486   -1.9824   -1.9257 H   0  0  0  0  0  0  0  0  0  0  0  0
    4.9687   -0.7737   -1.1505 H   0  0  0  0  0  0  0  0  0  0  0  0
    4.8668    0.6322    0.8880 H   0  0  0  0  0  0  0  0  0  0  0  0
    2.7566    0.8486    2.1450 H   0  0  0  0  0  0  0  0  0  0  0  0
  1  2  1  0
  2  3  2  0
  2  4  2  0
  2  5  1  0
  5  6  1  0
  6  7  2  0
  7  8  1  0
  8  9  1  0
  9 10  1  0
  9 11  1  0
  9 12  1  0
  8 13  2  0
 13 14  1  0
 14 15  1  0
 15 16  1  0
 16 17  2  0
 17 18  1  0
 18 19  2  0
 19 20  1  0
 20 21  2  0
 14  5  2  0
 21 16  1  0
  6 22  1  0
  7 23  1  0
 13 24  1  0
 15 25  1  0
 15 26  1  0
 17 27  1  0
 18 28  1  0
 19 29  1  0
 20 30  1  0
 21 31  1  0
M  RAD  1   1   3
M  END
$$$$
