
     RDKit          3D

 32 33  0  0  0  0  0  0  0  0999 V2000
    5.3126   -0.7443    1.8434 C   0  0  0  0  0  0  0  0  0  0  0  0
    3.9083   -0.8913    1.6599 O   0  0  0  0  0  0  0  0  0  0  0  0
    3.1991   -0.4057    0.5511 C   0  0  0  0  0  0  0  0  0  0  0  0
    3.8263    0.2859   -0.5012 C   0  0  0  0  0  0  0  0  0  0  0  0
    3.0745    0.7570   -1.5798 C   0  0  0  0  0  0  0  0  0  0  0  0
    1.6936    0.5420   -1.6277 C   0  0  0  0  0  0  0  0  0  0  0  0
    0.9492    1.0485   -2.7336 N   0  0  0  0  0  1  0  0  0  0  0  0
    1.0545   -0.1638   -0.5881 C   0  0  0  0  0  0  0  0  0  0  0  0
   -0.4385   -0.3841   -0.5932 C   0  0  0  0  0  0  0  0  0  0  0  0
   -1.1618    0.8089    0.0389 C   0  0  0  0  0  0  0  0  0  0  0  0
   -2.6507    0.5898    0.0307 C   0  0  0  0  0  0  0  0  0  0  0  0
   -3.4196    0.9898   -1.0751 C   0  0  0  0  0  0  0  0  0  0  0  0
   -4.7982    0.7558   -1.0956 C   0  0  0  0  0  0  0  0  0  0  0  0
   -5.4159    0.1135   -0.0189 C   0  0  0  0  0  0  0  0  0  0  0  0
   -4.6554   -0.2998    1.0784 C   0  0  0  0  0  0  0  0  0  0  0  0
   -3.2765   -0.0679    1.1030 C   0  0  0  0  0  0  0  0  0  0  0  0
    1.8170   -0.6205    0.5005 C   0  0  0  0  0  0  0  0  0  0  0  0
    5.8602   -1.2438    1.0164 H   0  0  0  0  0  0  0  0  0  0  0  0
    5.5816    0.3324    1.8850 H   0  0  0  0  0  0  0  0  0  0  0  0
    5.6048   -1.2206    2.8016 H   0  0  0  0  0  0  0  0  0  0  0  0
    4.8921    0.4688   -0.4930 H   0  0  0  0  0  0  0  0  0  0  0  0
    3.5679    1.2950   -2.3798 H   0  0  0  0  0  0  0  0  0  0  0  0
   -0.7989   -0.5378   -1.6338 H   0  0  0  0  0  0  0  0  0  0  0  0
   -0.6854   -1.3100   -0.0277 H   0  0  0  0  0  0  0  0  0  0  0  0
   -0.9163    1.7382   -0.5211 H   0  0  0  0  0  0  0  0  0  0  0  0
   -0.8078    0.9503    1.0841 H   0  0  0  0  0  0  0  0  0  0  0  0
   -2.9514    1.4799   -1.9199 H   0  0  0  0  0  0  0  0  0  0  0  0
   -5.3871    1.0694   -1.9479 H   0  0  0  0  0  0  0  0  0  0  0  0
   -6.4828   -0.0680   -0.0370 H   0  0  0  0  0  0  0  0  0  0  0  0
   -5.1337   -0.8031    1.9087 H   0  0  0  0  0  0  0  0  0  0  0  0
   -2.6969   -0.4015    1.9550 H   0  0  0  0  0  0  0  0  0  0  0  0
    1.3353   -1.1457    1.3166 H   0  0  0  0  0  0  0  0  0  0  0  0
  1  2  1  0
  2  3  1  0
  3  4  1  0
  4  5  2  0
  5  6  1  0
  6  7  1  0
  6  8  2  0
  8  9  1  0
  9 10  1  0
 10 11  1  0
 11 12  2  0
 12 13  1  0
 13 14  2  0
 14 15  1  0
 15 16  2  0
  8 17  1  0
 16 11  1  0
 17  3  2  0
  1 18  1  0
  1 19  1  0
  1 20  1  0
  4 21  1  0
  5 22  1  0
  9 23  1  0
  9 24  1  0
 10 25  1  0
 10 26  1  0
 12 27  1  0
 13 28  1  0
 14 29  1  0
 15 30  1  0
 16 31  1  0
 17 32  1  0
M  RAD  1   7   3
M  END
$$$$
