
     RDKit          3D

 32 33  0  0  0  0  0  0  0  0999 V2000
   -5.5768   -0.4543    0.9336 C   0  0  0  0  0  0  0  0  0  0  0  0
   -4.1683   -0.3998    1.1354 O   0  0  0  0  0  0  0  0  0  0  0  0
   -3.2628    0.1956    0.2445 C   0  0  0  0  0  0  0  0  0  0  0  0
   -3.6749    0.8048   -0.9547 C   0  0  0  0  0  0  0  0  0  0  0  0
   -2.7331    1.3768   -1.8128 C   0  0  0  0  0  0  0  0  0  0  0  0
   -1.3734    1.3549   -1.4871 C   0  0  0  0  0  0  0  0  0  0  0  0
   -0.4329    1.9325   -2.3901 N   0  0  0  0  0  1  0  0  0  0  0  0
   -0.9479    0.7624   -0.2807 C   0  0  0  0  0  0  0  0  0  0  0  0
    0.5147    0.6929    0.0848 C   0  0  0  0  0  0  0  0  0  0  0  0
    1.1647   -0.5522   -0.5262 C   0  0  0  0  0  0  0  0  0  0  0  0
    2.6238   -0.6191   -0.1638 C   0  0  0  0  0  0  0  0  0  0  0  0
    3.0325   -1.2628    1.0163 C   0  0  0  0  0  0  0  0  0  0  0  0
    4.3855   -1.2954    1.3682 C   0  0  0  0  0  0  0  0  0  0  0  0
    5.3369   -0.6783    0.5511 C   0  0  0  0  0  0  0  0  0  0  0  0
    4.9364   -0.0239   -0.6171 C   0  0  0  0  0  0  0  0  0  0  0  0
    3.5844    0.0110   -0.9727 C   0  0  0  0  0  0  0  0  0  0  0  0
   -1.9014    0.1758    0.5689 C   0  0  0  0  0  0  0  0  0  0  0  0
   -5.9941    0.5732    0.8749 H   0  0  0  0  0  0  0  0  0  0  0  0
   -6.0457   -0.9797    1.7906 H   0  0  0  0  0  0  0  0  0  0  0  0
   -5.8077   -1.0148    0.0032 H   0  0  0  0  0  0  0  0  0  0  0  0
   -4.7188    0.8371   -1.2352 H   0  0  0  0  0  0  0  0  0  0  0  0
   -3.0623    1.8356   -2.7369 H   0  0  0  0  0  0  0  0  0  0  0  0
    1.0408    1.6068   -0.2678 H   0  0  0  0  0  0  0  0  0  0  0  0
    0.6263    0.6648    1.1915 H   0  0  0  0  0  0  0  0  0  0  0  0
    1.0536   -0.5306   -1.6328 H   0  0  0  0  0  0  0  0  0  0  0  0
    0.6435   -1.4644   -0.1600 H   0  0  0  0  0  0  0  0  0  0  0  0
    2.3041   -1.7366    1.6628 H   0  0  0  0  0  0  0  0  0  0  0  0
    4.6961   -1.7960    2.2761 H   0  0  0  0  0  0  0  0  0  0  0  0
    6.3836   -0.7033    0.8256 H   0  0  0  0  0  0  0  0  0  0  0  0
    5.6733    0.4594   -1.2455 H   0  0  0  0  0  0  0  0  0  0  0  0
    3.2858    0.5295   -1.8755 H   0  0  0  0  0  0  0  0  0  0  0  0
   -1.5860   -0.3019    1.4888 H   0  0  0  0  0  0  0  0  0  0  0  0
  1  2  1  0
  2  3  1  0
  3  4  1  0
  4  5  2  0
  5  6  1  0
  6  7  1  0
  6  8  2  0
  8  9  1  0
  9 10  1  0
 10 11  1  0
 11 12  2  0
 12 13  1  0
 13 14  2  0
 14 15  1  0
 15 16  2  0
  8 17  1  0
 16 11  1  0
 17  3  2  0
  1 18  1  0
  1 19  1  0
  1 20  1  0
  4 21  1  0
  5 22  1  0
  9 23  1  0
  9 24  1  0
 10 25  1  0
 10 26  1  0
 12 27  1  0
 13 28  1  0
 14 29  1  0
 15 30  1  0
 16 31  1  0
 17 32  1  0
M  RAD  1   7   3
M  END
$$$$
