
     RDKit          3D

 32 33  0  0  0  0  0  0  0  0999 V2000
   -5.5296   -1.1822   -0.5475 C   0  0  0  0  0  0  0  0  0  0  0  0
   -4.1366   -1.3313   -0.2931 O   0  0  0  0  0  0  0  0  0  0  0  0
   -3.2725   -0.2740    0.0289 C   0  0  0  0  0  0  0  0  0  0  0  0
   -3.7153    1.0574    0.1307 C   0  0  0  0  0  0  0  0  0  0  0  0
   -2.8136    2.0762    0.4460 C   0  0  0  0  0  0  0  0  0  0  0  0
   -1.4645    1.7836    0.6689 C   0  0  0  0  0  0  0  0  0  0  0  0
   -0.5637    2.8464    0.9734 N   0  0  0  0  0  1  0  0  0  0  0  0
   -1.0101    0.4516    0.5865 C   0  0  0  0  0  0  0  0  0  0  0  0
    0.4450    0.1063    0.7888 C   0  0  0  0  0  0  0  0  0  0  0  0
    1.2197    0.2437   -0.5253 C   0  0  0  0  0  0  0  0  0  0  0  0
    2.6712   -0.0980   -0.3220 C   0  0  0  0  0  0  0  0  0  0  0  0
    3.5853    0.8957    0.0665 C   0  0  0  0  0  0  0  0  0  0  0  0
    4.9273    0.5703    0.2870 C   0  0  0  0  0  0  0  0  0  0  0  0
    5.3632   -0.7485    0.1312 C   0  0  0  0  0  0  0  0  0  0  0  0
    4.4568   -1.7451   -0.2413 C   0  0  0  0  0  0  0  0  0  0  0  0
    3.1139   -1.4240   -0.4629 C   0  0  0  0  0  0  0  0  0  0  0  0
   -1.9219   -0.5646    0.2534 C   0  0  0  0  0  0  0  0  0  0  0  0
   -5.9649   -2.1767   -0.7757 H   0  0  0  0  0  0  0  0  0  0  0  0
   -6.0392   -0.7680    0.3480 H   0  0  0  0  0  0  0  0  0  0  0  0
   -5.6890   -0.5154   -1.4211 H   0  0  0  0  0  0  0  0  0  0  0  0
   -4.7518    1.3161   -0.0368 H   0  0  0  0  0  0  0  0  0  0  0  0
   -3.1653    3.0983    0.5135 H   0  0  0  0  0  0  0  0  0  0  0  0
    0.5366   -0.9363    1.1665 H   0  0  0  0  0  0  0  0  0  0  0  0
    0.8911    0.7684    1.5628 H   0  0  0  0  0  0  0  0  0  0  0  0
    0.7780   -0.4304   -1.2924 H   0  0  0  0  0  0  0  0  0  0  0  0
    1.1293    1.2839   -0.9089 H   0  0  0  0  0  0  0  0  0  0  0  0
    3.2582    1.9195    0.1998 H   0  0  0  0  0  0  0  0  0  0  0  0
    5.6288    1.3399    0.5822 H   0  0  0  0  0  0  0  0  0  0  0  0
    6.4020   -0.9990    0.3036 H   0  0  0  0  0  0  0  0  0  0  0  0
    4.7941   -2.7672   -0.3551 H   0  0  0  0  0  0  0  0  0  0  0  0
    2.4197   -2.2070   -0.7420 H   0  0  0  0  0  0  0  0  0  0  0  0
   -1.5821   -1.5897    0.1657 H   0  0  0  0  0  0  0  0  0  0  0  0
  1  2  1  0
  2  3  1  0
  3  4  1  0
  4  5  2  0
  5  6  1  0
  6  7  1  0
  6  8  2  0
  8  9  1  0
  9 10  1  0
 10 11  1  0
 11 12  2  0
 12 13  1  0
 13 14  2  0
 14 15  1  0
 15 16  2  0
  8 17  1  0
 16 11  1  0
 17  3  2  0
  1 18  1  0
  1 19  1  0
  1 20  1  0
  4 21  1  0
  5 22  1  0
  9 23  1  0
  9 24  1  0
 10 25  1  0
 10 26  1  0
 12 27  1  0
 13 28  1  0
 14 29  1  0
 15 30  1  0
 16 31  1  0
 17 32  1  0
M  RAD  1   7   3
M  END
$$$$
