
     RDKit          3D

 32 33  0  0  0  0  0  0  0  0999 V2000
   -5.6188    0.6209   -0.6821 C   0  0  0  0  0  0  0  0  0  0  0  0
   -4.2535    0.8985   -0.3884 O   0  0  0  0  0  0  0  0  0  0  0  0
   -3.2825   -0.0818   -0.1346 C   0  0  0  0  0  0  0  0  0  0  0  0
   -3.5779   -1.4572   -0.1489 C   0  0  0  0  0  0  0  0  0  0  0  0
   -2.5738   -2.3948    0.1020 C   0  0  0  0  0  0  0  0  0  0  0  0
   -1.2675   -1.9770    0.3749 C   0  0  0  0  0  0  0  0  0  0  0  0
   -0.2592   -2.9574    0.6115 N   0  0  0  0  0  1  0  0  0  0  0  0
   -0.9608   -0.6015    0.4087 C   0  0  0  0  0  0  0  0  0  0  0  0
    0.4453   -0.1184    0.6676 C   0  0  0  0  0  0  0  0  0  0  0  0
    1.2455   -0.0634   -0.6372 C   0  0  0  0  0  0  0  0  0  0  0  0
    2.6484    0.4157   -0.3778 C   0  0  0  0  0  0  0  0  0  0  0  0
    2.9448    1.7889   -0.4037 C   0  0  0  0  0  0  0  0  0  0  0  0
    4.2418    2.2343   -0.1299 C   0  0  0  0  0  0  0  0  0  0  0  0
    5.2475    1.3148    0.1807 C   0  0  0  0  0  0  0  0  0  0  0  0
    4.9569   -0.0517    0.2222 C   0  0  0  0  0  0  0  0  0  0  0  0
    3.6613   -0.5015   -0.0509 C   0  0  0  0  0  0  0  0  0  0  0  0
   -1.9745    0.3340    0.1397 C   0  0  0  0  0  0  0  0  0  0  0  0
   -5.6942    0.0145   -1.6094 H   0  0  0  0  0  0  0  0  0  0  0  0
   -6.0901    0.0820    0.1669 H   0  0  0  0  0  0  0  0  0  0  0  0
   -6.1577    1.5777   -0.8386 H   0  0  0  0  0  0  0  0  0  0  0  0
   -4.5779   -1.8119   -0.3576 H   0  0  0  0  0  0  0  0  0  0  0  0
   -2.8121   -3.4509    0.0802 H   0  0  0  0  0  0  0  0  0  0  0  0
    0.9523   -0.7893    1.3951 H   0  0  0  0  0  0  0  0  0  0  0  0
    0.4179    0.8936    1.1292 H   0  0  0  0  0  0  0  0  0  0  0  0
    0.7415    0.6192   -1.3569 H   0  0  0  0  0  0  0  0  0  0  0  0
    1.2742   -1.0725   -1.1044 H   0  0  0  0  0  0  0  0  0  0  0  0
    2.1723    2.5122   -0.6338 H   0  0  0  0  0  0  0  0  0  0  0  0
    4.4665    3.2928   -0.1551 H   0  0  0  0  0  0  0  0  0  0  0  0
    6.2505    1.6613    0.3937 H   0  0  0  0  0  0  0  0  0  0  0  0
    5.7349   -0.7624    0.4695 H   0  0  0  0  0  0  0  0  0  0  0  0
    3.4467   -1.5621   -0.0062 H   0  0  0  0  0  0  0  0  0  0  0  0
   -1.7480    1.3935    0.1413 H   0  0  0  0  0  0  0  0  0  0  0  0
  1  2  1  0
  2  3  1  0
  3  4  1  0
  4  5  2  0
  5  6  1  0
  6  7  1  0
  6  8  2  0
  8  9  1  0
  9 10  1  0
 10 11  1  0
 11 12  2  0
 12 13  1  0
 13 14  2  0
 14 15  1  0
 15 16  2  0
  8 17  1  0
 16 11  1  0
 17  3  2  0
  1 18  1  0
  1 19  1  0
  1 20  1  0
  4 21  1  0
  5 22  1  0
  9 23  1  0
  9 24  1  0
 10 25  1  0
 10 26  1  0
 12 27  1  0
 13 28  1  0
 14 29  1  0
 15 30  1  0
 16 31  1  0
 17 32  1  0
M  RAD  1   7   3
M  END
$$$$
