
     RDKit          3D

 32 33  0  0  0  0  0  0  0  0999 V2000
    2.2871    2.4823    0.7607 C   0  0  0  0  0  0  0  0  0  0  0  0
    2.7112    1.7001   -0.3511 O   0  0  0  0  0  0  0  0  0  0  0  0
    2.2500    0.4048   -0.6295 C   0  0  0  0  0  0  0  0  0  0  0  0
    2.7084   -0.2291   -1.7884 C   0  0  0  0  0  0  0  0  0  0  0  0
    2.2576   -1.5076   -2.1231 C   0  0  0  0  0  0  0  0  0  0  0  0
    1.3420   -2.1715   -1.3008 C   0  0  0  0  0  0  0  0  0  0  0  0
    0.8784   -3.4657   -1.6796 N   0  0  0  0  0  1  0  0  0  0  0  0
    0.8837   -1.5570   -0.1180 C   0  0  0  0  0  0  0  0  0  0  0  0
   -0.1498   -2.2223    0.7626 C   0  0  0  0  0  0  0  0  0  0  0  0
   -1.5780   -1.9580    0.2637 C   0  0  0  0  0  0  0  0  0  0  0  0
   -1.9277   -0.4922    0.3231 C   0  0  0  0  0  0  0  0  0  0  0  0
   -2.2921    0.0987    1.5444 C   0  0  0  0  0  0  0  0  0  0  0  0
   -2.5537    1.4706    1.6126 C   0  0  0  0  0  0  0  0  0  0  0  0
   -2.4470    2.2621    0.4657 C   0  0  0  0  0  0  0  0  0  0  0  0
   -2.0791    1.6830   -0.7517 C   0  0  0  0  0  0  0  0  0  0  0  0
   -1.8189    0.3114   -0.8250 C   0  0  0  0  0  0  0  0  0  0  0  0
    1.3419   -0.2685    0.2088 C   0  0  0  0  0  0  0  0  0  0  0  0
    2.7947    3.4678    0.7255 H   0  0  0  0  0  0  0  0  0  0  0  0
    1.1891    2.6455    0.7159 H   0  0  0  0  0  0  0  0  0  0  0  0
    2.5600    1.9756    1.7104 H   0  0  0  0  0  0  0  0  0  0  0  0
    3.4100    0.2771   -2.4393 H   0  0  0  0  0  0  0  0  0  0  0  0
    2.6147   -1.9792   -3.0301 H   0  0  0  0  0  0  0  0  0  0  0  0
    0.0271   -3.3190    0.7899 H   0  0  0  0  0  0  0  0  0  0  0  0
   -0.0495   -1.8664    1.8118 H   0  0  0  0  0  0  0  0  0  0  0  0
   -2.2907   -2.5295    0.8972 H   0  0  0  0  0  0  0  0  0  0  0  0
   -1.6912   -2.3436   -0.7733 H   0  0  0  0  0  0  0  0  0  0  0  0
   -2.3635   -0.5014    2.4430 H   0  0  0  0  0  0  0  0  0  0  0  0
   -2.8331    1.9213    2.5561 H   0  0  0  0  0  0  0  0  0  0  0  0
   -2.6456    3.3246    0.5212 H   0  0  0  0  0  0  0  0  0  0  0  0
   -1.9896    2.2982   -1.6377 H   0  0  0  0  0  0  0  0  0  0  0  0
   -1.5175   -0.1212   -1.7710 H   0  0  0  0  0  0  0  0  0  0  0  0
    0.9712    0.2093    1.1060 H   0  0  0  0  0  0  0  0  0  0  0  0
  1  2  1  0
  2  3  1  0
  3  4  1  0
  4  5  2  0
  5  6  1  0
  6  7  1  0
  6  8  2  0
  8  9  1  0
  9 10  1  0
 10 11  1  0
 11 12  2  0
 12 13  1  0
 13 14  2  0
 14 15  1  0
 15 16  2  0
  8 17  1  0
 16 11  1  0
 17  3  2  0
  1 18  1  0
  1 19  1  0
  1 20  1  0
  4 21  1  0
  5 22  1  0
  9 23  1  0
  9 24  1  0
 10 25  1  0
 10 26  1  0
 12 27  1  0
 13 28  1  0
 14 29  1  0
 15 30  1  0
 16 31  1  0
 17 32  1  0
M  RAD  1   7   3
M  END
$$$$
