
     RDKit          3D

 32 33  0  0  0  0  0  0  0  0999 V2000
    5.6204    0.8283    0.2606 C   0  0  0  0  0  0  0  0  0  0  0  0
    4.2234    0.9809    0.4899 O   0  0  0  0  0  0  0  0  0  0  0  0
    3.2740   -0.0346    0.3014 C   0  0  0  0  0  0  0  0  0  0  0  0
    3.6255   -1.3227   -0.1415 C   0  0  0  0  0  0  0  0  0  0  0  0
    2.6416   -2.2973   -0.3217 C   0  0  0  0  0  0  0  0  0  0  0  0
    1.2995   -2.0052   -0.0591 C   0  0  0  0  0  0  0  0  0  0  0  0
    0.3146   -3.0153   -0.2675 N   0  0  0  0  0  1  0  0  0  0  0  0
    0.9349   -0.7236    0.4010 C   0  0  0  0  0  0  0  0  0  0  0  0
   -0.5078   -0.3660    0.6620 C   0  0  0  0  0  0  0  0  0  0  0  0
   -1.1843    0.1194   -0.6235 C   0  0  0  0  0  0  0  0  0  0  0  0
   -2.6237    0.4729   -0.3630 C   0  0  0  0  0  0  0  0  0  0  0  0
   -2.9727    1.7722    0.0420 C   0  0  0  0  0  0  0  0  0  0  0  0
   -4.3068    2.0899    0.3155 C   0  0  0  0  0  0  0  0  0  0  0  0
   -5.2984    1.1122    0.1964 C   0  0  0  0  0  0  0  0  0  0  0  0
   -4.9571   -0.1861   -0.1924 C   0  0  0  0  0  0  0  0  0  0  0  0
   -3.6242   -0.5081   -0.4668 C   0  0  0  0  0  0  0  0  0  0  0  0
    1.9302    0.2551    0.5645 C   0  0  0  0  0  0  0  0  0  0  0  0
    6.0321    0.0385    0.9239 H   0  0  0  0  0  0  0  0  0  0  0  0
    6.1319    1.7858    0.4884 H   0  0  0  0  0  0  0  0  0  0  0  0
    5.8067    0.5699   -0.8032 H   0  0  0  0  0  0  0  0  0  0  0  0
    4.6543   -1.5793   -0.3539 H   0  0  0  0  0  0  0  0  0  0  0  0
    2.9241   -3.2828   -0.6708 H   0  0  0  0  0  0  0  0  0  0  0  0
   -0.5650    0.4317    1.4356 H   0  0  0  0  0  0  0  0  0  0  0  0
   -1.0526   -1.2462    1.0679 H   0  0  0  0  0  0  0  0  0  0  0  0
   -0.6438    1.0082   -1.0183 H   0  0  0  0  0  0  0  0  0  0  0  0
   -1.1276   -0.6736   -1.4016 H   0  0  0  0  0  0  0  0  0  0  0  0
   -2.2124    2.5364    0.1472 H   0  0  0  0  0  0  0  0  0  0  0  0
   -4.5714    3.0933    0.6232 H   0  0  0  0  0  0  0  0  0  0  0  0
   -6.3303    1.3595    0.4098 H   0  0  0  0  0  0  0  0  0  0  0  0
   -5.7249   -0.9442   -0.2777 H   0  0  0  0  0  0  0  0  0  0  0  0
   -3.3714   -1.5202   -0.7580 H   0  0  0  0  0  0  0  0  0  0  0  0
    1.6613    1.2507    0.8970 H   0  0  0  0  0  0  0  0  0  0  0  0
  1  2  1  0
  2  3  1  0
  3  4  1  0
  4  5  2  0
  5  6  1  0
  6  7  1  0
  6  8  2  0
  8  9  1  0
  9 10  1  0
 10 11  1  0
 11 12  2  0
 12 13  1  0
 13 14  2  0
 14 15  1  0
 15 16  2  0
  8 17  1  0
 16 11  1  0
 17  3  2  0
  1 18  1  0
  1 19  1  0
  1 20  1  0
  4 21  1  0
  5 22  1  0
  9 23  1  0
  9 24  1  0
 10 25  1  0
 10 26  1  0
 12 27  1  0
 13 28  1  0
 14 29  1  0
 15 30  1  0
 16 31  1  0
 17 32  1  0
M  RAD  1   7   3
M  END
$$$$
