
     RDKit          3D

 34 36  0  0  0  0  0  0  0  0999 V2000
    4.0948   -1.4546   -1.4787 N   0  0  0  0  0  1  0  0  0  0  0  0
    3.5874   -0.5034   -0.5455 C   0  0  0  0  0  0  0  0  0  0  0  0
    4.2319    0.7323   -0.4114 C   0  0  0  0  0  0  0  0  0  0  0  0
    3.7471    1.6856    0.4872 C   0  0  0  0  0  0  0  0  0  0  0  0
    2.6150    1.4096    1.2560 C   0  0  0  0  0  0  0  0  0  0  0  0
    1.9664    0.1785    1.1309 C   0  0  0  0  0  0  0  0  0  0  0  0
    2.4478   -0.7928    0.2349 C   0  0  0  0  0  0  0  0  0  0  0  0
    1.7008   -2.0977    0.0791 C   0  0  0  0  0  0  0  0  0  0  0  0
    0.7472   -2.0711   -1.1241 C   0  0  0  0  0  0  0  0  0  0  0  0
   -0.3356   -1.0352   -0.9565 C   0  0  0  0  0  0  0  0  0  0  0  0
   -0.2060    0.2271   -1.5577 C   0  0  0  0  0  0  0  0  0  0  0  0
   -1.1807    1.2085   -1.3627 C   0  0  0  0  0  0  0  0  0  0  0  0
   -2.2977    0.9432   -0.5581 C   0  0  0  0  0  0  0  0  0  0  0  0
   -3.2812    1.9233   -0.3528 C   0  0  0  0  0  0  0  0  0  0  0  0
   -4.3880    1.6479    0.4554 C   0  0  0  0  0  0  0  0  0  0  0  0
   -4.5210    0.3968    1.0636 C   0  0  0  0  0  0  0  0  0  0  0  0
   -3.5484   -0.5880    0.8676 C   0  0  0  0  0  0  0  0  0  0  0  0
   -2.4327   -0.3250    0.0573 C   0  0  0  0  0  0  0  0  0  0  0  0
   -1.4486   -1.3043   -0.1444 C   0  0  0  0  0  0  0  0  0  0  0  0
    5.1077    0.9564   -1.0075 H   0  0  0  0  0  0  0  0  0  0  0  0
    4.2474    2.6404    0.5849 H   0  0  0  0  0  0  0  0  0  0  0  0
    2.2367    2.1519    1.9469 H   0  0  0  0  0  0  0  0  0  0  0  0
    1.0814   -0.0138    1.7251 H   0  0  0  0  0  0  0  0  0  0  0  0
    1.1267   -2.3286    1.0035 H   0  0  0  0  0  0  0  0  0  0  0  0
    2.4259   -2.9294   -0.0524 H   0  0  0  0  0  0  0  0  0  0  0  0
    0.2801   -3.0740   -1.2332 H   0  0  0  0  0  0  0  0  0  0  0  0
    1.3227   -1.8850   -2.0573 H   0  0  0  0  0  0  0  0  0  0  0  0
    0.6580    0.4554   -2.1697 H   0  0  0  0  0  0  0  0  0  0  0  0
   -1.0584    2.1756   -1.8358 H   0  0  0  0  0  0  0  0  0  0  0  0
   -3.1939    2.8992   -0.8153 H   0  0  0  0  0  0  0  0  0  0  0  0
   -5.1442    2.4064    0.6114 H   0  0  0  0  0  0  0  0  0  0  0  0
   -5.3799    0.1898    1.6889 H   0  0  0  0  0  0  0  0  0  0  0  0
   -3.6679   -1.5519    1.3477 H   0  0  0  0  0  0  0  0  0  0  0  0
   -1.5406   -2.2731    0.3335 H   0  0  0  0  0  0  0  0  0  0  0  0
  1  2  1  0
  2  3  2  0
  3  4  1  0
  4  5  2  0
  5  6  1  0
  6  7  2  0
  7  8  1  0
  8  9  1  0
  9 10  1  0
 10 11  1  0
 11 12  2  0
 12 13  1  0
 13 14  2  0
 14 15  1  0
 15 16  2  0
 16 17  1  0
 17 18  2  0
 18 19  1  0
  7  2  1  0
 19 10  2  0
 18 13  1  0
  3 20  1  0
  4 21  1  0
  5 22  1  0
  6 23  1  0
  8 24  1  0
  8 25  1  0
  9 26  1  0
  9 27  1  0
 11 28  1  0
 12 29  1  0
 14 30  1  0
 15 31  1  0
 16 32  1  0
 17 33  1  0
 19 34  1  0
M  RAD  1   1   3
M  END
$$$$
