
     RDKit          3D

 34 36  0  0  0  0  0  0  0  0999 V2000
    3.2988   -2.0654    1.2978 N   0  0  0  0  0  1  0  0  0  0  0  0
    3.8381   -0.9668    0.5658 C   0  0  0  0  0  0  0  0  0  0  0  0
    5.1973   -0.9720    0.2298 C   0  0  0  0  0  0  0  0  0  0  0  0
    5.7463    0.0850   -0.5001 C   0  0  0  0  0  0  0  0  0  0  0  0
    4.9387    1.1507   -0.9021 C   0  0  0  0  0  0  0  0  0  0  0  0
    3.5811    1.1649   -0.5713 C   0  0  0  0  0  0  0  0  0  0  0  0
    3.0192    0.1148    0.1759 C   0  0  0  0  0  0  0  0  0  0  0  0
    1.5441    0.1355    0.4932 C   0  0  0  0  0  0  0  0  0  0  0  0
    0.7493   -0.6026   -0.5882 C   0  0  0  0  0  0  0  0  0  0  0  0
   -0.7216   -0.5834   -0.2691 C   0  0  0  0  0  0  0  0  0  0  0  0
   -1.2857   -1.5984    0.5194 C   0  0  0  0  0  0  0  0  0  0  0  0
   -2.6436   -1.5693    0.8474 C   0  0  0  0  0  0  0  0  0  0  0  0
   -3.4551   -0.5173    0.3994 C   0  0  0  0  0  0  0  0  0  0  0  0
   -4.8201   -0.4776    0.7240 C   0  0  0  0  0  0  0  0  0  0  0  0
   -5.6174    0.5793    0.2753 C   0  0  0  0  0  0  0  0  0  0  0  0
   -5.0605    1.6017   -0.4976 C   0  0  0  0  0  0  0  0  0  0  0  0
   -3.7024    1.5743   -0.8277 C   0  0  0  0  0  0  0  0  0  0  0  0
   -2.8907    0.5181   -0.3848 C   0  0  0  0  0  0  0  0  0  0  0  0
   -1.5262    0.4799   -0.7092 C   0  0  0  0  0  0  0  0  0  0  0  0
    5.8289   -1.7984    0.5311 H   0  0  0  0  0  0  0  0  0  0  0  0
    6.7973    0.0755   -0.7586 H   0  0  0  0  0  0  0  0  0  0  0  0
    5.3643    1.9653   -1.4738 H   0  0  0  0  0  0  0  0  0  0  0  0
    2.9667    1.9945   -0.8990 H   0  0  0  0  0  0  0  0  0  0  0  0
    1.3600   -0.3326    1.4848 H   0  0  0  0  0  0  0  0  0  0  0  0
    1.1879    1.1873    0.5630 H   0  0  0  0  0  0  0  0  0  0  0  0
    1.1037   -1.6543   -0.6643 H   0  0  0  0  0  0  0  0  0  0  0  0
    0.9268   -0.1229   -1.5762 H   0  0  0  0  0  0  0  0  0  0  0  0
   -0.6713   -2.4133    0.8823 H   0  0  0  0  0  0  0  0  0  0  0  0
   -3.0578   -2.3662    1.4536 H   0  0  0  0  0  0  0  0  0  0  0  0
   -5.2686   -1.2610    1.3234 H   0  0  0  0  0  0  0  0  0  0  0  0
   -6.6696    0.6063    0.5278 H   0  0  0  0  0  0  0  0  0  0  0  0
   -5.6829    2.4176   -0.8415 H   0  0  0  0  0  0  0  0  0  0  0  0
   -3.2880    2.3757   -1.4277 H   0  0  0  0  0  0  0  0  0  0  0  0
   -1.0869    1.2749   -1.3013 H   0  0  0  0  0  0  0  0  0  0  0  0
  1  2  1  0
  2  3  2  0
  3  4  1  0
  4  5  2  0
  5  6  1  0
  6  7  2  0
  7  8  1  0
  8  9  1  0
  9 10  1  0
 10 11  1  0
 11 12  2  0
 12 13  1  0
 13 14  2  0
 14 15  1  0
 15 16  2  0
 16 17  1  0
 17 18  2  0
 18 19  1  0
  7  2  1  0
 19 10  2  0
 18 13  1  0
  3 20  1  0
  4 21  1  0
  5 22  1  0
  6 23  1  0
  8 24  1  0
  8 25  1  0
  9 26  1  0
  9 27  1  0
 11 28  1  0
 12 29  1  0
 14 30  1  0
 15 31  1  0
 16 32  1  0
 17 33  1  0
 19 34  1  0
M  RAD  1   1   3
M  END
$$$$
