
     RDKit          3D

 34 36  0  0  0  0  0  0  0  0999 V2000
   -3.6169    2.3099    0.4970 N   0  0  0  0  0  1  0  0  0  0  0  0
   -3.1822    0.9554    0.5948 C   0  0  0  0  0  0  0  0  0  0  0  0
   -3.4803    0.2245    1.7512 C   0  0  0  0  0  0  0  0  0  0  0  0
   -3.0541   -1.0998    1.8767 C   0  0  0  0  0  0  0  0  0  0  0  0
   -2.3276   -1.7010    0.8472 C   0  0  0  0  0  0  0  0  0  0  0  0
   -2.0277   -0.9806   -0.3116 C   0  0  0  0  0  0  0  0  0  0  0  0
   -2.4551    0.3518   -0.4532 C   0  0  0  0  0  0  0  0  0  0  0  0
   -2.0693    1.1304   -1.6905 C   0  0  0  0  0  0  0  0  0  0  0  0
   -0.8264    2.0008   -1.4544 C   0  0  0  0  0  0  0  0  0  0  0  0
    0.3888    1.1650   -1.1410 C   0  0  0  0  0  0  0  0  0  0  0  0
    1.1175    0.5642   -2.1791 C   0  0  0  0  0  0  0  0  0  0  0  0
    2.2102   -0.2586   -1.8941 C   0  0  0  0  0  0  0  0  0  0  0  0
    2.5828   -0.5011   -0.5643 C   0  0  0  0  0  0  0  0  0  0  0  0
    3.6734   -1.3331   -0.2665 C   0  0  0  0  0  0  0  0  0  0  0  0
    4.0295   -1.5735    1.0637 C   0  0  0  0  0  0  0  0  0  0  0  0
    3.3020   -0.9882    2.1035 C   0  0  0  0  0  0  0  0  0  0  0  0
    2.2143   -0.1572    1.8205 C   0  0  0  0  0  0  0  0  0  0  0  0
    1.8475    0.0942    0.4892 C   0  0  0  0  0  0  0  0  0  0  0  0
    0.7562    0.9238    0.1930 C   0  0  0  0  0  0  0  0  0  0  0  0
   -4.0391    0.6847    2.5564 H   0  0  0  0  0  0  0  0  0  0  0  0
   -3.2841   -1.6593    2.7742 H   0  0  0  0  0  0  0  0  0  0  0  0
   -1.9921   -2.7250    0.9490 H   0  0  0  0  0  0  0  0  0  0  0  0
   -1.4504   -1.4577   -1.0941 H   0  0  0  0  0  0  0  0  0  0  0  0
   -2.9144    1.7825   -1.9995 H   0  0  0  0  0  0  0  0  0  0  0  0
   -1.8820    0.4387   -2.5414 H   0  0  0  0  0  0  0  0  0  0  0  0
   -0.6321    2.6034   -2.3683 H   0  0  0  0  0  0  0  0  0  0  0  0
   -1.0222    2.7239   -0.6326 H   0  0  0  0  0  0  0  0  0  0  0  0
    0.8331    0.7281   -3.2112 H   0  0  0  0  0  0  0  0  0  0  0  0
    2.7583   -0.7108   -2.7120 H   0  0  0  0  0  0  0  0  0  0  0  0
    4.2472   -1.7971   -1.0598 H   0  0  0  0  0  0  0  0  0  0  0  0
    4.8706   -2.2162    1.2893 H   0  0  0  0  0  0  0  0  0  0  0  0
    3.5818   -1.1793    3.1315 H   0  0  0  0  0  0  0  0  0  0  0  0
    1.6612    0.2871    2.6395 H   0  0  0  0  0  0  0  0  0  0  0  0
    0.1813    1.3700    0.9968 H   0  0  0  0  0  0  0  0  0  0  0  0
  1  2  1  0
  2  3  2  0
  3  4  1  0
  4  5  2  0
  5  6  1  0
  6  7  2  0
  7  8  1  0
  8  9  1  0
  9 10  1  0
 10 11  1  0
 11 12  2  0
 12 13  1  0
 13 14  2  0
 14 15  1  0
 15 16  2  0
 16 17  1  0
 17 18  2  0
 18 19  1  0
  7  2  1  0
 19 10  2  0
 18 13  1  0
  3 20  1  0
  4 21  1  0
  5 22  1  0
  6 23  1  0
  8 24  1  0
  8 25  1  0
  9 26  1  0
  9 27  1  0
 11 28  1  0
 12 29  1  0
 14 30  1  0
 15 31  1  0
 16 32  1  0
 17 33  1  0
 19 34  1  0
M  RAD  1   1   3
M  END
$$$$
