
     RDKit          3D

 34 36  0  0  0  0  0  0  0  0999 V2000
    4.0025   -1.6915   -1.5068 N   0  0  0  0  0  1  0  0  0  0  0  0
    3.5534   -0.6171   -0.6839 C   0  0  0  0  0  0  0  0  0  0  0  0
    4.2151    0.6151   -0.7486 C   0  0  0  0  0  0  0  0  0  0  0  0
    3.7868    1.6867    0.0386 C   0  0  0  0  0  0  0  0  0  0  0  0
    2.6942    1.5329    0.8940 C   0  0  0  0  0  0  0  0  0  0  0  0
    2.0289    0.3065    0.9671 C   0  0  0  0  0  0  0  0  0  0  0  0
    2.4539   -0.7824    0.1851 C   0  0  0  0  0  0  0  0  0  0  0  0
    1.6881   -2.0845    0.2427 C   0  0  0  0  0  0  0  0  0  0  0  0
    0.6729   -2.2025   -0.9032 C   0  0  0  0  0  0  0  0  0  0  0  0
   -0.3903   -1.1365   -0.8201 C   0  0  0  0  0  0  0  0  0  0  0  0
   -0.2813    0.0328   -1.5898 C   0  0  0  0  0  0  0  0  0  0  0  0
   -1.2356    1.0467   -1.4778 C   0  0  0  0  0  0  0  0  0  0  0  0
   -2.3111    0.9080   -0.5892 C   0  0  0  0  0  0  0  0  0  0  0  0
   -3.2736    1.9221   -0.4664 C   0  0  0  0  0  0  0  0  0  0  0  0
   -4.3388    1.7738    0.4266 C   0  0  0  0  0  0  0  0  0  0  0  0
   -4.4508    0.6166    1.2019 C   0  0  0  0  0  0  0  0  0  0  0  0
   -3.4987   -0.4007    1.0895 C   0  0  0  0  0  0  0  0  0  0  0  0
   -2.4249   -0.2651    0.1957 C   0  0  0  0  0  0  0  0  0  0  0  0
   -1.4615   -1.2780    0.0762 C   0  0  0  0  0  0  0  0  0  0  0  0
    5.0603    0.7443   -1.4130 H   0  0  0  0  0  0  0  0  0  0  0  0
    4.3000    2.6380   -0.0173 H   0  0  0  0  0  0  0  0  0  0  0  0
    2.3595    2.3661    1.4983 H   0  0  0  0  0  0  0  0  0  0  0  0
    1.1748    0.2086    1.6259 H   0  0  0  0  0  0  0  0  0  0  0  0
    1.1614   -2.1818    1.2177 H   0  0  0  0  0  0  0  0  0  0  0  0
    2.3979   -2.9377    0.1864 H   0  0  0  0  0  0  0  0  0  0  0  0
    0.1917   -3.2035   -0.8539 H   0  0  0  0  0  0  0  0  0  0  0  0
    1.2002   -2.1508   -1.8809 H   0  0  0  0  0  0  0  0  0  0  0  0
    0.5513    0.1642   -2.2699 H   0  0  0  0  0  0  0  0  0  0  0  0
   -1.1297    1.9405   -2.0811 H   0  0  0  0  0  0  0  0  0  0  0  0
   -3.2020    2.8267   -1.0586 H   0  0  0  0  0  0  0  0  0  0  0  0
   -5.0790    2.5582    0.5185 H   0  0  0  0  0  0  0  0  0  0  0  0
   -5.2774    0.5079    1.8921 H   0  0  0  0  0  0  0  0  0  0  0  0
   -3.6014   -1.2906    1.6991 H   0  0  0  0  0  0  0  0  0  0  0  0
   -1.5368   -2.1734    0.6830 H   0  0  0  0  0  0  0  0  0  0  0  0
  1  2  1  0
  2  3  2  0
  3  4  1  0
  4  5  2  0
  5  6  1  0
  6  7  2  0
  7  8  1  0
  8  9  1  0
  9 10  1  0
 10 11  1  0
 11 12  2  0
 12 13  1  0
 13 14  2  0
 14 15  1  0
 15 16  2  0
 16 17  1  0
 17 18  2  0
 18 19  1  0
  7  2  1  0
 19 10  2  0
 18 13  1  0
  3 20  1  0
  4 21  1  0
  5 22  1  0
  6 23  1  0
  8 24  1  0
  8 25  1  0
  9 26  1  0
  9 27  1  0
 11 28  1  0
 12 29  1  0
 14 30  1  0
 15 31  1  0
 16 32  1  0
 17 33  1  0
 19 34  1  0
M  RAD  1   1   3
M  END
$$$$
