
     RDKit          3D

 34 36  0  0  0  0  0  0  0  0999 V2000
    4.1279   -1.9121   -0.4051 N   0  0  0  0  0  1  0  0  0  0  0  0
    3.5984   -0.6117   -0.1564 C   0  0  0  0  0  0  0  0  0  0  0  0
    4.2200    0.5010   -0.7359 C   0  0  0  0  0  0  0  0  0  0  0  0
    3.7133    1.7842   -0.5173 C   0  0  0  0  0  0  0  0  0  0  0  0
    2.5819    1.9624    0.2810 C   0  0  0  0  0  0  0  0  0  0  0  0
    1.9559    0.8585    0.8653 C   0  0  0  0  0  0  0  0  0  0  0  0
    2.4596   -0.4383    0.6588 C   0  0  0  0  0  0  0  0  0  0  0  0
    1.7368   -1.6224    1.2593 C   0  0  0  0  0  0  0  0  0  0  0  0
    0.7898   -2.2869    0.2496 C   0  0  0  0  0  0  0  0  0  0  0  0
   -0.3121   -1.3525   -0.1819 C   0  0  0  0  0  0  0  0  0  0  0  0
   -0.2015   -0.6361   -1.3844 C   0  0  0  0  0  0  0  0  0  0  0  0
   -1.1946    0.2702   -1.7635 C   0  0  0  0  0  0  0  0  0  0  0  0
   -2.3113    0.4774   -0.9416 C   0  0  0  0  0  0  0  0  0  0  0  0
   -3.3133    1.3882   -1.3114 C   0  0  0  0  0  0  0  0  0  0  0  0
   -4.4195    1.5893   -0.4809 C   0  0  0  0  0  0  0  0  0  0  0  0
   -4.5338    0.8860    0.7212 C   0  0  0  0  0  0  0  0  0  0  0  0
   -3.5428   -0.0237    1.1013 C   0  0  0  0  0  0  0  0  0  0  0  0
   -2.4274   -0.2361    0.2761 C   0  0  0  0  0  0  0  0  0  0  0  0
   -1.4249   -1.1442    0.6483 C   0  0  0  0  0  0  0  0  0  0  0  0
    5.0951    0.3711   -1.3604 H   0  0  0  0  0  0  0  0  0  0  0  0
    4.1960    2.6407   -0.9699 H   0  0  0  0  0  0  0  0  0  0  0  0
    2.1865    2.9567    0.4438 H   0  0  0  0  0  0  0  0  0  0  0  0
    1.0711    1.0134    1.4705 H   0  0  0  0  0  0  0  0  0  0  0  0
    2.4773   -2.3735    1.6092 H   0  0  0  0  0  0  0  0  0  0  0  0
    1.1616   -1.3101    2.1588 H   0  0  0  0  0  0  0  0  0  0  0  0
    0.3412   -3.1891    0.7195 H   0  0  0  0  0  0  0  0  0  0  0  0
    1.3673   -2.6412   -0.6322 H   0  0  0  0  0  0  0  0  0  0  0  0
    0.6617   -0.7715   -2.0244 H   0  0  0  0  0  0  0  0  0  0  0  0
   -1.0868    0.8125   -2.6953 H   0  0  0  0  0  0  0  0  0  0  0  0
   -3.2406    1.9431   -2.2392 H   0  0  0  0  0  0  0  0  0  0  0  0
   -5.1900    2.2925   -0.7695 H   0  0  0  0  0  0  0  0  0  0  0  0
   -5.3925    1.0465    1.3603 H   0  0  0  0  0  0  0  0  0  0  0  0
   -3.6479   -0.5595    2.0372 H   0  0  0  0  0  0  0  0  0  0  0  0
   -1.5024   -1.6847    1.5850 H   0  0  0  0  0  0  0  0  0  0  0  0
  1  2  1  0
  2  3  2  0
  3  4  1  0
  4  5  2  0
  5  6  1  0
  6  7  2  0
  7  8  1  0
  8  9  1  0
  9 10  1  0
 10 11  1  0
 11 12  2  0
 12 13  1  0
 13 14  2  0
 14 15  1  0
 15 16  2  0
 16 17  1  0
 17 18  2  0
 18 19  1  0
  7  2  1  0
 19 10  2  0
 18 13  1  0
  3 20  1  0
  4 21  1  0
  5 22  1  0
  6 23  1  0
  8 24  1  0
  8 25  1  0
  9 26  1  0
  9 27  1  0
 11 28  1  0
 12 29  1  0
 14 30  1  0
 15 31  1  0
 16 32  1  0
 17 33  1  0
 19 34  1  0
M  RAD  1   1   3
M  END
$$$$
