
     RDKit          3D

 34 36  0  0  0  0  0  0  0  0999 V2000
    3.1070   -2.6912    0.2897 N   0  0  0  0  0  1  0  0  0  0  0  0
    3.7405   -1.4342    0.0611 C   0  0  0  0  0  0  0  0  0  0  0  0
    5.1214   -1.3193    0.2617 C   0  0  0  0  0  0  0  0  0  0  0  0
    5.7630   -0.0951    0.0594 C   0  0  0  0  0  0  0  0  0  0  0  0
    5.0270    1.0222   -0.3400 C   0  0  0  0  0  0  0  0  0  0  0  0
    3.6483    0.9173   -0.5429 C   0  0  0  0  0  0  0  0  0  0  0  0
    2.9928   -0.3125   -0.3576 C   0  0  0  0  0  0  0  0  0  0  0  0
    1.4985   -0.3941   -0.5507 C   0  0  0  0  0  0  0  0  0  0  0  0
    0.7690   -0.1422    0.7722 C   0  0  0  0  0  0  0  0  0  0  0  0
   -0.7214   -0.2265    0.5786 C   0  0  0  0  0  0  0  0  0  0  0  0
   -1.3812   -1.4584    0.7100 C   0  0  0  0  0  0  0  0  0  0  0  0
   -2.7594   -1.5503    0.4990 C   0  0  0  0  0  0  0  0  0  0  0  0
   -3.4961   -0.4117    0.1428 C   0  0  0  0  0  0  0  0  0  0  0  0
   -4.8807   -0.4932   -0.0726 C   0  0  0  0  0  0  0  0  0  0  0  0
   -5.6030    0.6484   -0.4321 C   0  0  0  0  0  0  0  0  0  0  0  0
   -4.9513    1.8757   -0.5796 C   0  0  0  0  0  0  0  0  0  0  0  0
   -3.5727    1.9704   -0.3683 C   0  0  0  0  0  0  0  0  0  0  0  0
   -2.8356    0.8321   -0.0055 C   0  0  0  0  0  0  0  0  0  0  0  0
   -1.4514    0.9145    0.2088 C   0  0  0  0  0  0  0  0  0  0  0  0
    5.6983   -2.1791    0.5788 H   0  0  0  0  0  0  0  0  0  0  0  0
    6.8305   -0.0112    0.2172 H   0  0  0  0  0  0  0  0  0  0  0  0
    5.5247    1.9718   -0.4892 H   0  0  0  0  0  0  0  0  0  0  0  0
    3.0908    1.7960   -0.8435 H   0  0  0  0  0  0  0  0  0  0  0  0
    1.2192   -1.3922   -0.9534 H   0  0  0  0  0  0  0  0  0  0  0  0
    1.1736    0.3586   -1.3030 H   0  0  0  0  0  0  0  0  0  0  0  0
    1.0417    0.8624    1.1647 H   0  0  0  0  0  0  0  0  0  0  0  0
    1.0926   -0.8904    1.5292 H   0  0  0  0  0  0  0  0  0  0  0  0
   -0.8261   -2.3499    0.9748 H   0  0  0  0  0  0  0  0  0  0  0  0
   -3.2479   -2.5111    0.6105 H   0  0  0  0  0  0  0  0  0  0  0  0
   -5.4023   -1.4366    0.0360 H   0  0  0  0  0  0  0  0  0  0  0  0
   -6.6705    0.5814   -0.5974 H   0  0  0  0  0  0  0  0  0  0  0  0
   -5.5160    2.7559   -0.8587 H   0  0  0  0  0  0  0  0  0  0  0  0
   -3.0844    2.9303   -0.4874 H   0  0  0  0  0  0  0  0  0  0  0  0
   -0.9391    1.8624    0.0873 H   0  0  0  0  0  0  0  0  0  0  0  0
  1  2  1  0
  2  3  2  0
  3  4  1  0
  4  5  2  0
  5  6  1  0
  6  7  2  0
  7  8  1  0
  8  9  1  0
  9 10  1  0
 10 11  1  0
 11 12  2  0
 12 13  1  0
 13 14  2  0
 14 15  1  0
 15 16  2  0
 16 17  1  0
 17 18  2  0
 18 19  1  0
  7  2  1  0
 19 10  2  0
 18 13  1  0
  3 20  1  0
  4 21  1  0
  5 22  1  0
  6 23  1  0
  8 24  1  0
  8 25  1  0
  9 26  1  0
  9 27  1  0
 11 28  1  0
 12 29  1  0
 14 30  1  0
 15 31  1  0
 16 32  1  0
 17 33  1  0
 19 34  1  0
M  RAD  1   1   3
M  END
$$$$
