
     RDKit          3D

 34 36  0  0  0  0  0  0  0  0999 V2000
   -3.3096   -2.3418   -0.7904 N   0  0  0  0  0  1  0  0  0  0  0  0
   -3.8365   -1.1410   -0.2299 C   0  0  0  0  0  0  0  0  0  0  0  0
   -5.2124   -0.8952   -0.3135 C   0  0  0  0  0  0  0  0  0  0  0  0
   -5.7510    0.2808    0.2141 C   0  0  0  0  0  0  0  0  0  0  0  0
   -4.9167    1.2196    0.8240 C   0  0  0  0  0  0  0  0  0  0  0  0
   -3.5423    0.9830    0.9124 C   0  0  0  0  0  0  0  0  0  0  0  0
   -2.9894   -0.2033    0.3990 C   0  0  0  0  0  0  0  0  0  0  0  0
   -1.4985   -0.4222    0.4766 C   0  0  0  0  0  0  0  0  0  0  0  0
   -0.8104    0.0976   -0.7892 C   0  0  0  0  0  0  0  0  0  0  0  0
    0.6765   -0.1236   -0.7116 C   0  0  0  0  0  0  0  0  0  0  0  0
    1.2359   -1.3253   -1.1735 C   0  0  0  0  0  0  0  0  0  0  0  0
    2.6112   -1.5512   -1.0741 C   0  0  0  0  0  0  0  0  0  0  0  0
    3.4459   -0.5813   -0.5010 C   0  0  0  0  0  0  0  0  0  0  0  0
    4.8286   -0.7985   -0.3952 C   0  0  0  0  0  0  0  0  0  0  0  0
    5.6493    0.1744    0.1827 C   0  0  0  0  0  0  0  0  0  0  0  0
    5.0983    1.3672    0.6587 C   0  0  0  0  0  0  0  0  0  0  0  0
    3.7229    1.5959    0.5596 C   0  0  0  0  0  0  0  0  0  0  0  0
    2.8875    0.6279   -0.0198 C   0  0  0  0  0  0  0  0  0  0  0  0
    1.5053    0.8457   -0.1243 C   0  0  0  0  0  0  0  0  0  0  0  0
   -5.8653   -1.6146   -0.7917 H   0  0  0  0  0  0  0  0  0  0  0  0
   -6.8151    0.4667    0.1456 H   0  0  0  0  0  0  0  0  0  0  0  0
   -5.3349    2.1335    1.2258 H   0  0  0  0  0  0  0  0  0  0  0  0
   -2.9079    1.7260    1.3802 H   0  0  0  0  0  0  0  0  0  0  0  0
   -1.2774   -1.5035    0.6112 H   0  0  0  0  0  0  0  0  0  0  0  0
   -1.0856    0.1036    1.3661 H   0  0  0  0  0  0  0  0  0  0  0  0
   -1.0239    1.1825   -0.9128 H   0  0  0  0  0  0  0  0  0  0  0  0
   -1.2217   -0.4226   -1.6823 H   0  0  0  0  0  0  0  0  0  0  0  0
    0.6046   -2.0895   -1.6099 H   0  0  0  0  0  0  0  0  0  0  0  0
    3.0210   -2.4846   -1.4415 H   0  0  0  0  0  0  0  0  0  0  0  0
    5.2728   -1.7179   -0.7577 H   0  0  0  0  0  0  0  0  0  0  0  0
    6.7150    0.0031    0.2624 H   0  0  0  0  0  0  0  0  0  0  0  0
    5.7390    2.1164    1.1056 H   0  0  0  0  0  0  0  0  0  0  0  0
    3.3134    2.5265    0.9342 H   0  0  0  0  0  0  0  0  0  0  0  0
    1.0713    1.7657    0.2511 H   0  0  0  0  0  0  0  0  0  0  0  0
  1  2  1  0
  2  3  2  0
  3  4  1  0
  4  5  2  0
  5  6  1  0
  6  7  2  0
  7  8  1  0
  8  9  1  0
  9 10  1  0
 10 11  1  0
 11 12  2  0
 12 13  1  0
 13 14  2  0
 14 15  1  0
 15 16  2  0
 16 17  1  0
 17 18  2  0
 18 19  1  0
  7  2  1  0
 19 10  2  0
 18 13  1  0
  3 20  1  0
  4 21  1  0
  5 22  1  0
  6 23  1  0
  8 24  1  0
  8 25  1  0
  9 26  1  0
  9 27  1  0
 11 28  1  0
 12 29  1  0
 14 30  1  0
 15 31  1  0
 16 32  1  0
 17 33  1  0
 19 34  1  0
M  RAD  1   1   3
M  END
$$$$
