
     RDKit          3D

 34 36  0  0  0  0  0  0  0  0999 V2000
   -3.4887    2.4316    0.7622 N   0  0  0  0  0  1  0  0  0  0  0  0
   -3.1309    1.0529    0.6940 C   0  0  0  0  0  0  0  0  0  0  0  0
   -3.4822    0.2034    1.7499 C   0  0  0  0  0  0  0  0  0  0  0  0
   -3.1315   -1.1483    1.7130 C   0  0  0  0  0  0  0  0  0  0  0  0
   -2.4278   -1.6583    0.6204 C   0  0  0  0  0  0  0  0  0  0  0  0
   -2.0753   -0.8189   -0.4393 C   0  0  0  0  0  0  0  0  0  0  0  0
   -2.4265    0.5428   -0.4173 C   0  0  0  0  0  0  0  0  0  0  0  0
   -1.9841    1.4445   -1.5473 C   0  0  0  0  0  0  0  0  0  0  0  0
   -0.6976    2.2079   -1.2000 C   0  0  0  0  0  0  0  0  0  0  0  0
    0.4658    1.2727   -0.9867 C   0  0  0  0  0  0  0  0  0  0  0  0
    1.1718    0.7640   -2.0878 C   0  0  0  0  0  0  0  0  0  0  0  0
    2.2139   -0.1479   -1.9016 C   0  0  0  0  0  0  0  0  0  0  0  0
    2.5574   -0.5728   -0.6103 C   0  0  0  0  0  0  0  0  0  0  0  0
    3.5966   -1.4952   -0.4126 C   0  0  0  0  0  0  0  0  0  0  0  0
    3.9237   -1.9171    0.8794 C   0  0  0  0  0  0  0  0  0  0  0  0
    3.2180   -1.4240    1.9802 C   0  0  0  0  0  0  0  0  0  0  0  0
    2.1813   -0.5045    1.7971 C   0  0  0  0  0  0  0  0  0  0  0  0
    1.8442   -0.0710    0.5053 C   0  0  0  0  0  0  0  0  0  0  0  0
    0.8039    0.8489    0.3089 C   0  0  0  0  0  0  0  0  0  0  0  0
   -4.0238    0.5918    2.6033 H   0  0  0  0  0  0  0  0  0  0  0  0
   -3.4024   -1.8000    2.5335 H   0  0  0  0  0  0  0  0  0  0  0  0
   -2.1508   -2.7043    0.5965 H   0  0  0  0  0  0  0  0  0  0  0  0
   -1.5164   -1.2279   -1.2722 H   0  0  0  0  0  0  0  0  0  0  0  0
   -2.7881    2.1763   -1.7772 H   0  0  0  0  0  0  0  0  0  0  0  0
   -1.8257    0.8533   -2.4762 H   0  0  0  0  0  0  0  0  0  0  0  0
   -0.8624    2.8343   -0.2961 H   0  0  0  0  0  0  0  0  0  0  0  0
   -0.4599    2.9063   -2.0317 H   0  0  0  0  0  0  0  0  0  0  0  0
    0.9087    1.0694   -3.0930 H   0  0  0  0  0  0  0  0  0  0  0  0
    2.7454   -0.5263   -2.7667 H   0  0  0  0  0  0  0  0  0  0  0  0
    4.1529   -1.8898   -1.2545 H   0  0  0  0  0  0  0  0  0  0  0  0
    4.7253   -2.6290    1.0277 H   0  0  0  0  0  0  0  0  0  0  0  0
    3.4751   -1.7555    2.9780 H   0  0  0  0  0  0  0  0  0  0  0  0
    1.6443   -0.1338    2.6621 H   0  0  0  0  0  0  0  0  0  0  0  0
    0.2456    1.2246    1.1591 H   0  0  0  0  0  0  0  0  0  0  0  0
  1  2  1  0
  2  3  2  0
  3  4  1  0
  4  5  2  0
  5  6  1  0
  6  7  2  0
  7  8  1  0
  8  9  1  0
  9 10  1  0
 10 11  1  0
 11 12  2  0
 12 13  1  0
 13 14  2  0
 14 15  1  0
 15 16  2  0
 16 17  1  0
 17 18  2  0
 18 19  1  0
  7  2  1  0
 19 10  2  0
 18 13  1  0
  3 20  1  0
  4 21  1  0
  5 22  1  0
  6 23  1  0
  8 24  1  0
  8 25  1  0
  9 26  1  0
  9 27  1  0
 11 28  1  0
 12 29  1  0
 14 30  1  0
 15 31  1  0
 16 32  1  0
 17 33  1  0
 19 34  1  0
M  RAD  1   1   3
M  END
$$$$
