
     RDKit          3D

 31 32  0  0  0  0  0  0  0  0999 V2000
    3.1185    0.4486   -1.5645 N   0  0  0  0  0  1  0  0  0  0  0  0
    2.6014   -0.1502   -0.3782 C   0  0  0  0  0  0  0  0  0  0  0  0
    3.3144   -0.0160    0.8190 C   0  0  0  0  0  0  0  0  0  0  0  0
    2.8342   -0.5987    1.9938 C   0  0  0  0  0  0  0  0  0  0  0  0
    1.6421   -1.3245    1.9772 C   0  0  0  0  0  0  0  0  0  0  0  0
    0.9237   -1.4654    0.7872 C   0  0  0  0  0  0  0  0  0  0  0  0
    1.3880   -0.8728   -0.4008 C   0  0  0  0  0  0  0  0  0  0  0  0
    0.5831   -1.0104   -1.6711 C   0  0  0  0  0  0  0  0  0  0  0  0
   -0.1670    0.2778   -2.0804 C   0  0  0  0  0  0  0  0  0  0  0  0
   -1.2830    0.8092   -1.1407 C   0  0  0  0  0  0  0  0  0  0  0  0
   -0.7854    1.5516    0.1082 C   0  0  0  0  0  0  0  0  0  0  0  0
   -1.6571    1.0805    1.2694 C   0  0  0  0  0  0  0  0  0  0  0  0
   -2.8286    0.3336    0.6505 C   0  0  0  0  0  0  0  0  0  0  0  0
   -2.3030   -0.2240   -0.6592 C   0  0  0  0  0  0  0  0  0  0  0  0
    4.2429    0.5408    0.8395 H   0  0  0  0  0  0  0  0  0  0  0  0
    3.3887   -0.4907    2.9171 H   0  0  0  0  0  0  0  0  0  0  0  0
    1.2733   -1.7784    2.8878 H   0  0  0  0  0  0  0  0  0  0  0  0
    0.0035   -2.0343    0.7970 H   0  0  0  0  0  0  0  0  0  0  0  0
    1.2810   -1.2743   -2.4952 H   0  0  0  0  0  0  0  0  0  0  0  0
   -0.1144   -1.8709   -1.6129 H   0  0  0  0  0  0  0  0  0  0  0  0
   -0.6356    0.0757   -3.0685 H   0  0  0  0  0  0  0  0  0  0  0  0
    0.5686    1.0924   -2.2538 H   0  0  0  0  0  0  0  0  0  0  0  0
   -1.8559    1.5562   -1.7382 H   0  0  0  0  0  0  0  0  0  0  0  0
   -0.9086    2.6485   -0.0317 H   0  0  0  0  0  0  0  0  0  0  0  0
    0.2836    1.3688    0.3302 H   0  0  0  0  0  0  0  0  0  0  0  0
   -1.0766    0.3875    1.9171 H   0  0  0  0  0  0  0  0  0  0  0  0
   -2.0105    1.9364    1.8844 H   0  0  0  0  0  0  0  0  0  0  0  0
   -3.1945   -0.4748    1.3202 H   0  0  0  0  0  0  0  0  0  0  0  0
   -3.6589    1.0454    0.4459 H   0  0  0  0  0  0  0  0  0  0  0  0
   -1.8439   -1.2083   -0.4525 H   0  0  0  0  0  0  0  0  0  0  0  0
   -3.1238   -0.3590   -1.3967 H   0  0  0  0  0  0  0  0  0  0  0  0
  1  2  1  0
  2  3  2  0
  3  4  1  0
  4  5  2  0
  5  6  1  0
  6  7  2  0
  7  8  1  0
  8  9  1  0
  9 10  1  0
 10 11  1  0
 11 12  1  0
 12 13  1  0
 13 14  1  0
  7  2  1  0
 14 10  1  0
  3 15  1  0
  4 16  1  0
  5 17  1  0
  6 18  1  0
  8 19  1  0
  8 20  1  0
  9 21  1  0
  9 22  1  0
 10 23  1  0
 11 24  1  0
 11 25  1  0
 12 26  1  0
 12 27  1  0
 13 28  1  0
 13 29  1  0
 14 30  1  0
 14 31  1  0
M  RAD  1   1   3
M  END
$$$$
