
     RDKit          3D

 31 32  0  0  0  0  0  0  0  0999 V2000
    1.9202    0.9705    2.2906 N   0  0  0  0  0  1  0  0  0  0  0  0
    2.6970    0.3193    1.2875 C   0  0  0  0  0  0  0  0  0  0  0  0
    4.0642    0.6052    1.1903 C   0  0  0  0  0  0  0  0  0  0  0  0
    4.8437   -0.0081    0.2067 C   0  0  0  0  0  0  0  0  0  0  0  0
    4.2600   -0.9069   -0.6882 C   0  0  0  0  0  0  0  0  0  0  0  0
    2.8963   -1.1988   -0.5990 C   0  0  0  0  0  0  0  0  0  0  0  0
    2.1035   -0.6000    0.3958 C   0  0  0  0  0  0  0  0  0  0  0  0
    0.6265   -0.9047    0.4526 C   0  0  0  0  0  0  0  0  0  0  0  0
   -0.1675    0.1213   -0.3670 C   0  0  0  0  0  0  0  0  0  0  0  0
   -1.6775   -0.1871   -0.3677 C   0  0  0  0  0  0  0  0  0  0  0  0
   -2.4505    0.7491   -1.2874 C   0  0  0  0  0  0  0  0  0  0  0  0
   -3.8751    0.7503   -0.7538 C   0  0  0  0  0  0  0  0  0  0  0  0
   -3.7889    0.3590    0.7205 C   0  0  0  0  0  0  0  0  0  0  0  0
   -2.3348   -0.0098    0.9994 C   0  0  0  0  0  0  0  0  0  0  0  0
    4.5232    1.3069    1.8756 H   0  0  0  0  0  0  0  0  0  0  0  0
    5.8999    0.2175    0.1349 H   0  0  0  0  0  0  0  0  0  0  0  0
    4.8642   -1.3756   -1.4543 H   0  0  0  0  0  0  0  0  0  0  0  0
    2.4575   -1.8911   -1.3070 H   0  0  0  0  0  0  0  0  0  0  0  0
    0.2821   -0.9022    1.5088 H   0  0  0  0  0  0  0  0  0  0  0  0
    0.4363   -1.9258    0.0544 H   0  0  0  0  0  0  0  0  0  0  0  0
    0.2000    0.1004   -1.4170 H   0  0  0  0  0  0  0  0  0  0  0  0
    0.0118    1.1428    0.0359 H   0  0  0  0  0  0  0  0  0  0  0  0
   -1.8424   -1.2329   -0.7155 H   0  0  0  0  0  0  0  0  0  0  0  0
   -2.4137    0.4009   -2.3427 H   0  0  0  0  0  0  0  0  0  0  0  0
   -2.0393    1.7821   -1.2291 H   0  0  0  0  0  0  0  0  0  0  0  0
   -4.4814   -0.0005   -1.3072 H   0  0  0  0  0  0  0  0  0  0  0  0
   -4.3427    1.7514   -0.8775 H   0  0  0  0  0  0  0  0  0  0  0  0
   -4.1049    1.2047    1.3698 H   0  0  0  0  0  0  0  0  0  0  0  0
   -4.4507   -0.5118    0.9223 H   0  0  0  0  0  0  0  0  0  0  0  0
   -1.8497    0.8178    1.5637 H   0  0  0  0  0  0  0  0  0  0  0  0
   -2.2674   -0.9437    1.5989 H   0  0  0  0  0  0  0  0  0  0  0  0
  1  2  1  0
  2  3  2  0
  3  4  1  0
  4  5  2  0
  5  6  1  0
  6  7  2  0
  7  8  1  0
  8  9  1  0
  9 10  1  0
 10 11  1  0
 11 12  1  0
 12 13  1  0
 13 14  1  0
  7  2  1  0
 14 10  1  0
  3 15  1  0
  4 16  1  0
  5 17  1  0
  6 18  1  0
  8 19  1  0
  8 20  1  0
  9 21  1  0
  9 22  1  0
 10 23  1  0
 11 24  1  0
 11 25  1  0
 12 26  1  0
 12 27  1  0
 13 28  1  0
 13 29  1  0
 14 30  1  0
 14 31  1  0
M  RAD  1   1   3
M  END
$$$$
