
     RDKit          3D

 31 32  0  0  0  0  0  0  0  0999 V2000
   -2.8402   -1.2324   -1.6772 N   0  0  0  0  0  1  0  0  0  0  0  0
   -2.5435   -0.4105   -0.5504 C   0  0  0  0  0  0  0  0  0  0  0  0
   -3.3210    0.7298   -0.3155 C   0  0  0  0  0  0  0  0  0  0  0  0
   -3.0566    1.5481    0.7848 C   0  0  0  0  0  0  0  0  0  0  0  0
   -2.0179    1.2276    1.6603 C   0  0  0  0  0  0  0  0  0  0  0  0
   -1.2370    0.0911    1.4355 C   0  0  0  0  0  0  0  0  0  0  0  0
   -1.4829   -0.7349    0.3241 C   0  0  0  0  0  0  0  0  0  0  0  0
   -0.6097   -1.9427    0.0803 C   0  0  0  0  0  0  0  0  0  0  0  0
    0.3927   -1.7668   -1.0833 C   0  0  0  0  0  0  0  0  0  0  0  0
    1.5012   -0.6886   -0.9425 C   0  0  0  0  0  0  0  0  0  0  0  0
    2.2729   -0.6883    0.3781 C   0  0  0  0  0  0  0  0  0  0  0  0
    2.7758    0.7352    0.5312 C   0  0  0  0  0  0  0  0  0  0  0  0
    1.7092    1.6102   -0.1093 C   0  0  0  0  0  0  0  0  0  0  0  0
    1.0400    0.7564   -1.1831 C   0  0  0  0  0  0  0  0  0  0  0  0
   -4.1322    0.9826   -0.9868 H   0  0  0  0  0  0  0  0  0  0  0  0
   -3.6598    2.4292    0.9610 H   0  0  0  0  0  0  0  0  0  0  0  0
   -1.8166    1.8610    2.5145 H   0  0  0  0  0  0  0  0  0  0  0  0
   -0.4386   -0.1394    2.1284 H   0  0  0  0  0  0  0  0  0  0  0  0
   -0.0864   -2.2532    1.0077 H   0  0  0  0  0  0  0  0  0  0  0  0
   -1.2702   -2.8021   -0.1665 H   0  0  0  0  0  0  0  0  0  0  0  0
   -0.1663   -1.5801   -2.0253 H   0  0  0  0  0  0  0  0  0  0  0  0
    0.9004   -2.7467   -1.2199 H   0  0  0  0  0  0  0  0  0  0  0  0
    2.2486   -0.9127   -1.7390 H   0  0  0  0  0  0  0  0  0  0  0  0
    1.6279   -0.9186    1.2460 H   0  0  0  0  0  0  0  0  0  0  0  0
    3.1164   -1.4122    0.3561 H   0  0  0  0  0  0  0  0  0  0  0  0
    3.7353    0.8526   -0.0197 H   0  0  0  0  0  0  0  0  0  0  0  0
    2.9309    1.0001    1.5996 H   0  0  0  0  0  0  0  0  0  0  0  0
    2.1569    2.5303   -0.5436 H   0  0  0  0  0  0  0  0  0  0  0  0
    0.9598    1.9025    0.6585 H   0  0  0  0  0  0  0  0  0  0  0  0
    1.3705    1.0943   -2.1904 H   0  0  0  0  0  0  0  0  0  0  0  0
   -0.0595    0.8783   -1.1424 H   0  0  0  0  0  0  0  0  0  0  0  0
  1  2  1  0
  2  3  2  0
  3  4  1  0
  4  5  2  0
  5  6  1  0
  6  7  2  0
  7  8  1  0
  8  9  1  0
  9 10  1  0
 10 11  1  0
 11 12  1  0
 12 13  1  0
 13 14  1  0
  7  2  1  0
 14 10  1  0
  3 15  1  0
  4 16  1  0
  5 17  1  0
  6 18  1  0
  8 19  1  0
  8 20  1  0
  9 21  1  0
  9 22  1  0
 10 23  1  0
 11 24  1  0
 11 25  1  0
 12 26  1  0
 12 27  1  0
 13 28  1  0
 13 29  1  0
 14 30  1  0
 14 31  1  0
M  RAD  1   1   3
M  END
$$$$
