
     RDKit          3D

 31 32  0  0  0  0  0  0  0  0999 V2000
    1.7640   -0.5612    2.4928 N   0  0  0  0  0  1  0  0  0  0  0  0
    2.6212   -0.4374    1.3599 C   0  0  0  0  0  0  0  0  0  0  0  0
    3.9668   -0.1033    1.5555 C   0  0  0  0  0  0  0  0  0  0  0  0
    4.8233    0.0388    0.4612 C   0  0  0  0  0  0  0  0  0  0  0  0
    4.3385   -0.1477   -0.8348 C   0  0  0  0  0  0  0  0  0  0  0  0
    2.9971   -0.4816   -1.0401 C   0  0  0  0  0  0  0  0  0  0  0  0
    2.1280   -0.6424    0.0533 C   0  0  0  0  0  0  0  0  0  0  0  0
    0.6759   -0.9707   -0.1935 C   0  0  0  0  0  0  0  0  0  0  0  0
   -0.1604    0.3132   -0.2775 C   0  0  0  0  0  0  0  0  0  0  0  0
   -1.6431    0.0159   -0.5745 C   0  0  0  0  0  0  0  0  0  0  0  0
   -2.4483    1.2906   -0.7906 C   0  0  0  0  0  0  0  0  0  0  0  0
   -3.8875    0.9155   -0.4706 C   0  0  0  0  0  0  0  0  0  0  0  0
   -3.8261   -0.2904    0.4654 C   0  0  0  0  0  0  0  0  0  0  0  0
   -2.3600   -0.7009    0.5677 C   0  0  0  0  0  0  0  0  0  0  0  0
    4.3490    0.0506    2.5569 H   0  0  0  0  0  0  0  0  0  0  0  0
    5.8623    0.2987    0.6177 H   0  0  0  0  0  0  0  0  0  0  0  0
    5.0020   -0.0301   -1.6819 H   0  0  0  0  0  0  0  0  0  0  0  0
    2.6351   -0.6134   -2.0523 H   0  0  0  0  0  0  0  0  0  0  0  0
    0.2945   -1.6252    0.6192 H   0  0  0  0  0  0  0  0  0  0  0  0
    0.5743   -1.5430   -1.1419 H   0  0  0  0  0  0  0  0  0  0  0  0
    0.2450    0.9501   -1.0948 H   0  0  0  0  0  0  0  0  0  0  0  0
   -0.0700    0.8826    0.6742 H   0  0  0  0  0  0  0  0  0  0  0  0
   -1.7195   -0.6058   -1.4962 H   0  0  0  0  0  0  0  0  0  0  0  0
   -2.3487    1.6598   -1.8347 H   0  0  0  0  0  0  0  0  0  0  0  0
   -2.1152    2.0874   -0.0880 H   0  0  0  0  0  0  0  0  0  0  0  0
   -4.4178    0.6371   -1.4081 H   0  0  0  0  0  0  0  0  0  0  0  0
   -4.4216    1.7669    0.0049 H   0  0  0  0  0  0  0  0  0  0  0  0
   -4.4301   -1.1264    0.0490 H   0  0  0  0  0  0  0  0  0  0  0  0
   -4.2254   -0.0281    1.4696 H   0  0  0  0  0  0  0  0  0  0  0  0
   -1.9566   -0.3726    1.5518 H   0  0  0  0  0  0  0  0  0  0  0  0
   -2.2468   -1.8035    0.4807 H   0  0  0  0  0  0  0  0  0  0  0  0
  1  2  1  0
  2  3  2  0
  3  4  1  0
  4  5  2  0
  5  6  1  0
  6  7  2  0
  7  8  1  0
  8  9  1  0
  9 10  1  0
 10 11  1  0
 11 12  1  0
 12 13  1  0
 13 14  1  0
  7  2  1  0
 14 10  1  0
  3 15  1  0
  4 16  1  0
  5 17  1  0
  6 18  1  0
  8 19  1  0
  8 20  1  0
  9 21  1  0
  9 22  1  0
 10 23  1  0
 11 24  1  0
 11 25  1  0
 12 26  1  0
 12 27  1  0
 13 28  1  0
 13 29  1  0
 14 30  1  0
 14 31  1  0
M  RAD  1   1   3
M  END
$$$$
