
     RDKit          3D

 31 32  0  0  0  0  0  0  0  0999 V2000
   -1.4427   -1.2293   -2.3587 N   0  0  0  0  0  1  0  0  0  0  0  0
   -2.2993   -0.5135   -1.4713 C   0  0  0  0  0  0  0  0  0  0  0  0
   -3.6858   -0.5900   -1.6512 C   0  0  0  0  0  0  0  0  0  0  0  0
   -4.5467    0.0889   -0.7857 C   0  0  0  0  0  0  0  0  0  0  0  0
   -4.0269    0.8441    0.2673 C   0  0  0  0  0  0  0  0  0  0  0  0
   -2.6445    0.9267    0.4549 C   0  0  0  0  0  0  0  0  0  0  0  0
   -1.7663    0.2610   -0.4183 C   0  0  0  0  0  0  0  0  0  0  0  0
   -0.2784    0.3374   -0.1772 C   0  0  0  0  0  0  0  0  0  0  0  0
    0.1810   -0.8278    0.7165 C   0  0  0  0  0  0  0  0  0  0  0  0
    1.7096   -0.9030    0.9562 C   0  0  0  0  0  0  0  0  0  0  0  0
    2.2899    0.3511    1.6102 C   0  0  0  0  0  0  0  0  0  0  0  0
    2.9379    1.1641    0.4975 C   0  0  0  0  0  0  0  0  0  0  0  0
    3.1662    0.2181   -0.6779 C   0  0  0  0  0  0  0  0  0  0  0  0
    2.5162   -1.1175   -0.3269 C   0  0  0  0  0  0  0  0  0  0  0  0
   -4.0974   -1.1799   -2.4606 H   0  0  0  0  0  0  0  0  0  0  0  0
   -5.6178    0.0253   -0.9282 H   0  0  0  0  0  0  0  0  0  0  0  0
   -4.6958    1.3635    0.9414 H   0  0  0  0  0  0  0  0  0  0  0  0
   -2.2581    1.5091    1.2824 H   0  0  0  0  0  0  0  0  0  0  0  0
    0.2574    0.3213   -1.1486 H   0  0  0  0  0  0  0  0  0  0  0  0
   -0.0366    1.3053    0.3102 H   0  0  0  0  0  0  0  0  0  0  0  0
   -0.1480   -1.7884    0.2620 H   0  0  0  0  0  0  0  0  0  0  0  0
   -0.3276   -0.7451    1.7024 H   0  0  0  0  0  0  0  0  0  0  0  0
    1.8833   -1.7690    1.6347 H   0  0  0  0  0  0  0  0  0  0  0  0
    1.5242    0.9443    2.1562 H   0  0  0  0  0  0  0  0  0  0  0  0
    3.0749    0.0506    2.3395 H   0  0  0  0  0  0  0  0  0  0  0  0
    3.8979    1.6059    0.8434 H   0  0  0  0  0  0  0  0  0  0  0  0
    2.2638    1.9928    0.1902 H   0  0  0  0  0  0  0  0  0  0  0  0
    2.7100    0.6381   -1.6009 H   0  0  0  0  0  0  0  0  0  0  0  0
    4.2551    0.0799   -0.8575 H   0  0  0  0  0  0  0  0  0  0  0  0
    1.8907   -1.4941   -1.1657 H   0  0  0  0  0  0  0  0  0  0  0  0
    3.3136   -1.8699   -0.1363 H   0  0  0  0  0  0  0  0  0  0  0  0
  1  2  1  0
  2  3  2  0
  3  4  1  0
  4  5  2  0
  5  6  1  0
  6  7  2  0
  7  8  1  0
  8  9  1  0
  9 10  1  0
 10 11  1  0
 11 12  1  0
 12 13  1  0
 13 14  1  0
  7  2  1  0
 14 10  1  0
  3 15  1  0
  4 16  1  0
  5 17  1  0
  6 18  1  0
  8 19  1  0
  8 20  1  0
  9 21  1  0
  9 22  1  0
 10 23  1  0
 11 24  1  0
 11 25  1  0
 12 26  1  0
 12 27  1  0
 13 28  1  0
 13 29  1  0
 14 30  1  0
 14 31  1  0
M  RAD  1   1   3
M  END
$$$$
