
     RDKit          3D

 31 32  0  0  0  0  0  0  0  0999 V2000
   -1.7932   -2.1564   -1.7160 N   0  0  0  0  0  1  0  0  0  0  0  0
   -2.4329   -1.5140   -0.6152 C   0  0  0  0  0  0  0  0  0  0  0  0
   -3.8076   -1.6976   -0.4230 C   0  0  0  0  0  0  0  0  0  0  0  0
   -4.4606   -1.0672    0.6389 C   0  0  0  0  0  0  0  0  0  0  0  0
   -3.7441   -0.2461    1.5117 C   0  0  0  0  0  0  0  0  0  0  0  0
   -2.3717   -0.0569    1.3281 C   0  0  0  0  0  0  0  0  0  0  0  0
   -1.6993   -0.6976    0.2726 C   0  0  0  0  0  0  0  0  0  0  0  0
   -0.2235   -0.4515    0.0749 C   0  0  0  0  0  0  0  0  0  0  0  0
   -0.0001    0.7223   -0.8970 C   0  0  0  0  0  0  0  0  0  0  0  0
    1.4773    1.1570   -1.0650 C   0  0  0  0  0  0  0  0  0  0  0  0
    2.4029    0.0218   -1.5124 C   0  0  0  0  0  0  0  0  0  0  0  0
    3.1808   -0.3953   -0.2768 C   0  0  0  0  0  0  0  0  0  0  0  0
    3.2753    0.8488    0.5914 C   0  0  0  0  0  0  0  0  0  0  0  0
    2.0897    1.7359    0.2206 C   0  0  0  0  0  0  0  0  0  0  0  0
   -4.3722   -2.3266   -1.0998 H   0  0  0  0  0  0  0  0  0  0  0  0
   -5.5237   -1.2112    0.7822 H   0  0  0  0  0  0  0  0  0  0  0  0
   -4.2531    0.2474    2.3295 H   0  0  0  0  0  0  0  0  0  0  0  0
   -1.8326    0.5910    2.0084 H   0  0  0  0  0  0  0  0  0  0  0  0
    0.2547   -1.3733   -0.3164 H   0  0  0  0  0  0  0  0  0  0  0  0
    0.2499   -0.2409    1.0568 H   0  0  0  0  0  0  0  0  0  0  0  0
   -0.3999    0.4407   -1.8959 H   0  0  0  0  0  0  0  0  0  0  0  0
   -0.5852    1.6024   -0.5491 H   0  0  0  0  0  0  0  0  0  0  0  0
    1.4919    1.9475   -1.8494 H   0  0  0  0  0  0  0  0  0  0  0  0
    3.1184    0.4102   -2.2712 H   0  0  0  0  0  0  0  0  0  0  0  0
    1.8584   -0.8358   -1.9631 H   0  0  0  0  0  0  0  0  0  0  0  0
    2.6280   -1.1910    0.2679 H   0  0  0  0  0  0  0  0  0  0  0  0
    4.1892   -0.7782   -0.5456 H   0  0  0  0  0  0  0  0  0  0  0  0
    4.2259    1.3826    0.3700 H   0  0  0  0  0  0  0  0  0  0  0  0
    3.2561    0.5813    1.6703 H   0  0  0  0  0  0  0  0  0  0  0  0
    1.3594    1.7748    1.0573 H   0  0  0  0  0  0  0  0  0  0  0  0
    2.4418    2.7759    0.0420 H   0  0  0  0  0  0  0  0  0  0  0  0
  1  2  1  0
  2  3  2  0
  3  4  1  0
  4  5  2  0
  5  6  1  0
  6  7  2  0
  7  8  1  0
  8  9  1  0
  9 10  1  0
 10 11  1  0
 11 12  1  0
 12 13  1  0
 13 14  1  0
  7  2  1  0
 14 10  1  0
  3 15  1  0
  4 16  1  0
  5 17  1  0
  6 18  1  0
  8 19  1  0
  8 20  1  0
  9 21  1  0
  9 22  1  0
 10 23  1  0
 11 24  1  0
 11 25  1  0
 12 26  1  0
 12 27  1  0
 13 28  1  0
 13 29  1  0
 14 30  1  0
 14 31  1  0
M  RAD  1   1   3
M  END
$$$$
