
     RDKit          3D

 31 32  0  0  0  0  0  0  0  0999 V2000
   -2.1020   -2.3498    0.7558 N   0  0  0  0  0  1  0  0  0  0  0  0
   -2.6086   -1.0176    0.8046 C   0  0  0  0  0  0  0  0  0  0  0  0
   -3.9831   -0.8162    0.9796 C   0  0  0  0  0  0  0  0  0  0  0  0
   -4.5062    0.4785    1.0157 C   0  0  0  0  0  0  0  0  0  0  0  0
   -3.6590    1.5790    0.8723 C   0  0  0  0  0  0  0  0  0  0  0  0
   -2.2857    1.3881    0.6974 C   0  0  0  0  0  0  0  0  0  0  0  0
   -1.7442    0.0909    0.6746 C   0  0  0  0  0  0  0  0  0  0  0  0
   -0.2627   -0.0910    0.4512 C   0  0  0  0  0  0  0  0  0  0  0  0
    0.0366   -0.2665   -1.0495 C   0  0  0  0  0  0  0  0  0  0  0  0
    1.5418   -0.3195   -1.4118 C   0  0  0  0  0  0  0  0  0  0  0  0
    2.3126   -1.4153   -0.6696 C   0  0  0  0  0  0  0  0  0  0  0  0
    3.1039   -0.7079    0.4163 C   0  0  0  0  0  0  0  0  0  0  0  0
    3.3799    0.6886   -0.1169 C   0  0  0  0  0  0  0  0  0  0  0  0
    2.2809    0.9985   -1.1300 C   0  0  0  0  0  0  0  0  0  0  0  0
   -4.6481   -1.6644    1.0839 H   0  0  0  0  0  0  0  0  0  0  0  0
   -5.5696    0.6287    1.1498 H   0  0  0  0  0  0  0  0  0  0  0  0
   -4.0671    2.5813    0.8931 H   0  0  0  0  0  0  0  0  0  0  0  0
   -1.6438    2.2523    0.5779 H   0  0  0  0  0  0  0  0  0  0  0  0
    0.0902   -0.9752    1.0213 H   0  0  0  0  0  0  0  0  0  0  0  0
    0.2820    0.7868    0.8579 H   0  0  0  0  0  0  0  0  0  0  0  0
   -0.4293    0.5699   -1.6163 H   0  0  0  0  0  0  0  0  0  0  0  0
   -0.4437   -1.2054   -1.4026 H   0  0  0  0  0  0  0  0  0  0  0  0
    1.6018   -0.5307   -2.5036 H   0  0  0  0  0  0  0  0  0  0  0  0
    3.0254   -1.9018   -1.3722 H   0  0  0  0  0  0  0  0  0  0  0  0
    1.6543   -2.2055   -0.2484 H   0  0  0  0  0  0  0  0  0  0  0  0
    2.4967   -0.6410    1.3448 H   0  0  0  0  0  0  0  0  0  0  0  0
    4.0487   -1.2479    0.6432 H   0  0  0  0  0  0  0  0  0  0  0  0
    4.3704    0.7017   -0.6234 H   0  0  0  0  0  0  0  0  0  0  0  0
    3.3883    1.4333    0.7086 H   0  0  0  0  0  0  0  0  0  0  0  0
    2.7351    1.3904   -2.0668 H   0  0  0  0  0  0  0  0  0  0  0  0
    1.6044    1.7877   -0.7370 H   0  0  0  0  0  0  0  0  0  0  0  0
  1  2  1  0
  2  3  2  0
  3  4  1  0
  4  5  2  0
  5  6  1  0
  6  7  2  0
  7  8  1  0
  8  9  1  0
  9 10  1  0
 10 11  1  0
 11 12  1  0
 12 13  1  0
 13 14  1  0
  7  2  1  0
 14 10  1  0
  3 15  1  0
  4 16  1  0
  5 17  1  0
  6 18  1  0
  8 19  1  0
  8 20  1  0
  9 21  1  0
  9 22  1  0
 10 23  1  0
 11 24  1  0
 11 25  1  0
 12 26  1  0
 12 27  1  0
 13 28  1  0
 13 29  1  0
 14 30  1  0
 14 31  1  0
M  RAD  1   1   3
M  END
$$$$
