
     RDKit          3D

 31 32  0  0  0  0  0  0  0  0999 V2000
    1.9693    2.3637    0.9604 N   0  0  0  0  0  1  0  0  0  0  0  0
    2.5501    1.4013    0.0829 C   0  0  0  0  0  0  0  0  0  0  0  0
    3.9343    1.4169   -0.1271 C   0  0  0  0  0  0  0  0  0  0  0  0
    4.5295    0.4753   -0.9700 C   0  0  0  0  0  0  0  0  0  0  0  0
    3.7450   -0.4899   -1.6041 C   0  0  0  0  0  0  0  0  0  0  0  0
    2.3625   -0.5134   -1.4011 C   0  0  0  0  0  0  0  0  0  0  0  0
    1.7489    0.4379   -0.5673 C   0  0  0  0  0  0  0  0  0  0  0  0
    0.2588    0.3718   -0.3373 C   0  0  0  0  0  0  0  0  0  0  0  0
   -0.0552   -0.4773    0.9089 C   0  0  0  0  0  0  0  0  0  0  0  0
   -1.5623   -0.7323    1.1607 C   0  0  0  0  0  0  0  0  0  0  0  0
   -2.2251   -1.5839    0.0660 C   0  0  0  0  0  0  0  0  0  0  0  0
   -3.3362   -0.7372   -0.5494 C   0  0  0  0  0  0  0  0  0  0  0  0
   -3.1373    0.6824   -0.0437 C   0  0  0  0  0  0  0  0  0  0  0  0
   -2.3907    0.5510    1.2720 C   0  0  0  0  0  0  0  0  0  0  0  0
    4.5510    2.1574    0.3669 H   0  0  0  0  0  0  0  0  0  0  0  0
    5.6002    0.4909   -1.1277 H   0  0  0  0  0  0  0  0  0  0  0  0
    4.2088   -1.2232   -2.2512 H   0  0  0  0  0  0  0  0  0  0  0  0
    1.7697   -1.2749   -1.8929 H   0  0  0  0  0  0  0  0  0  0  0  0
   -0.1413    1.3996   -0.2151 H   0  0  0  0  0  0  0  0  0  0  0  0
   -0.2343   -0.0559   -1.2354 H   0  0  0  0  0  0  0  0  0  0  0  0
    0.4550   -1.4620    0.8193 H   0  0  0  0  0  0  0  0  0  0  0  0
    0.3704    0.0289    1.8031 H   0  0  0  0  0  0  0  0  0  0  0  0
   -1.6378   -1.2801    2.1275 H   0  0  0  0  0  0  0  0  0  0  0  0
   -1.5040   -1.9033   -0.7168 H   0  0  0  0  0  0  0  0  0  0  0  0
   -2.6599   -2.5067    0.5098 H   0  0  0  0  0  0  0  0  0  0  0  0
   -3.2999   -0.7708   -1.6601 H   0  0  0  0  0  0  0  0  0  0  0  0
   -4.3262   -1.1150   -0.2102 H   0  0  0  0  0  0  0  0  0  0  0  0
   -4.1101    1.2021    0.0950 H   0  0  0  0  0  0  0  0  0  0  0  0
   -2.5240    1.2566   -0.7714 H   0  0  0  0  0  0  0  0  0  0  0  0
   -3.1323    0.4382    2.0942 H   0  0  0  0  0  0  0  0  0  0  0  0
   -1.7765    1.4520    1.4866 H   0  0  0  0  0  0  0  0  0  0  0  0
  1  2  1  0
  2  3  2  0
  3  4  1  0
  4  5  2  0
  5  6  1  0
  6  7  2  0
  7  8  1  0
  8  9  1  0
  9 10  1  0
 10 11  1  0
 11 12  1  0
 12 13  1  0
 13 14  1  0
  7  2  1  0
 14 10  1  0
  3 15  1  0
  4 16  1  0
  5 17  1  0
  6 18  1  0
  8 19  1  0
  8 20  1  0
  9 21  1  0
  9 22  1  0
 10 23  1  0
 11 24  1  0
 11 25  1  0
 12 26  1  0
 12 27  1  0
 13 28  1  0
 13 29  1  0
 14 30  1  0
 14 31  1  0
M  RAD  1   1   3
M  END
$$$$
