
     RDKit          3D

 31 32  0  0  0  0  0  0  0  0999 V2000
    1.9827   -0.6735    2.4619 N   0  0  0  0  0  1  0  0  0  0  0  0
    2.5916   -0.6005    1.1744 C   0  0  0  0  0  0  0  0  0  0  0  0
    3.9881   -0.6296    1.0774 C   0  0  0  0  0  0  0  0  0  0  0  0
    4.6092   -0.5444   -0.1708 C   0  0  0  0  0  0  0  0  0  0  0  0
    3.8382   -0.4248   -1.3287 C   0  0  0  0  0  0  0  0  0  0  0  0
    2.4437   -0.3952   -1.2420 C   0  0  0  0  0  0  0  0  0  0  0  0
    1.8054   -0.4955    0.0067 C   0  0  0  0  0  0  0  0  0  0  0  0
    0.2994   -0.4277    0.0778 C   0  0  0  0  0  0  0  0  0  0  0  0
   -0.1631    1.0249    0.2977 C   0  0  0  0  0  0  0  0  0  0  0  0
   -1.6969    1.2354    0.2451 C   0  0  0  0  0  0  0  0  0  0  0  0
   -2.3010    0.9548   -1.1402 C   0  0  0  0  0  0  0  0  0  0  0  0
   -3.3120   -0.1759   -0.9678 C   0  0  0  0  0  0  0  0  0  0  0  0
   -3.0906   -0.7545    0.4203 C   0  0  0  0  0  0  0  0  0  0  0  0
   -2.4696    0.3634    1.2391 C   0  0  0  0  0  0  0  0  0  0  0  0
    4.5937   -0.7144    1.9711 H   0  0  0  0  0  0  0  0  0  0  0  0
    5.6892   -0.5658   -0.2402 H   0  0  0  0  0  0  0  0  0  0  0  0
    4.3214   -0.3515   -2.2944 H   0  0  0  0  0  0  0  0  0  0  0  0
    1.8607   -0.2922   -2.1490 H   0  0  0  0  0  0  0  0  0  0  0  0
   -0.0602   -1.0766    0.9030 H   0  0  0  0  0  0  0  0  0  0  0  0
   -0.1328   -0.8374   -0.8592 H   0  0  0  0  0  0  0  0  0  0  0  0
    0.3054    1.6789   -0.4710 H   0  0  0  0  0  0  0  0  0  0  0  0
    0.2061    1.3718    1.2879 H   0  0  0  0  0  0  0  0  0  0  0  0
   -1.8831    2.3032    0.5010 H   0  0  0  0  0  0  0  0  0  0  0  0
   -1.5300    0.6729   -1.8892 H   0  0  0  0  0  0  0  0  0  0  0  0
   -2.8167    1.8627   -1.5239 H   0  0  0  0  0  0  0  0  0  0  0  0
   -4.3448    0.2316   -1.0379 H   0  0  0  0  0  0  0  0  0  0  0  0
   -3.1799   -0.9567   -1.7481 H   0  0  0  0  0  0  0  0  0  0  0  0
   -4.0459   -1.1013    0.8707 H   0  0  0  0  0  0  0  0  0  0  0  0
   -2.3890   -1.6144    0.3600 H   0  0  0  0  0  0  0  0  0  0  0  0
   -3.2850    0.9659    1.6982 H   0  0  0  0  0  0  0  0  0  0  0  0
   -1.8341   -0.0338    2.0598 H   0  0  0  0  0  0  0  0  0  0  0  0
  1  2  1  0
  2  3  2  0
  3  4  1  0
  4  5  2  0
  5  6  1  0
  6  7  2  0
  7  8  1  0
  8  9  1  0
  9 10  1  0
 10 11  1  0
 11 12  1  0
 12 13  1  0
 13 14  1  0
  7  2  1  0
 14 10  1  0
  3 15  1  0
  4 16  1  0
  5 17  1  0
  6 18  1  0
  8 19  1  0
  8 20  1  0
  9 21  1  0
  9 22  1  0
 10 23  1  0
 11 24  1  0
 11 25  1  0
 12 26  1  0
 12 27  1  0
 13 28  1  0
 13 29  1  0
 14 30  1  0
 14 31  1  0
M  RAD  1   1   3
M  END
$$$$
