
     RDKit          3D

 31 33  0  0  0  0  0  0  0  0999 V2000
    3.3525   -1.7210    1.7577 N   0  0  0  0  0  1  0  0  0  0  0  0
    2.9386   -0.4685    1.2162 C   0  0  0  0  0  0  0  0  0  0  0  0
    3.1808    0.7032    1.9435 C   0  0  0  0  0  0  0  0  0  0  0  0
    2.7738    1.9412    1.4404 C   0  0  0  0  0  0  0  0  0  0  0  0
    2.1211    2.0148    0.2085 C   0  0  0  0  0  0  0  0  0  0  0  0
    1.8772    0.8514   -0.5256 C   0  0  0  0  0  0  0  0  0  0  0  0
    2.2886   -0.4006   -0.0346 C   0  0  0  0  0  0  0  0  0  0  0  0
    1.9727   -1.6509   -0.8240 C   0  0  0  0  0  0  0  0  0  0  0  0
    0.6881   -2.3277   -0.3291 C   0  0  0  0  0  0  0  0  0  0  0  0
   -0.5068   -1.4471   -0.5305 C   0  0  0  0  0  0  0  0  0  0  0  0
   -1.2060   -1.2962   -1.7252 C   0  0  0  0  0  0  0  0  0  0  0  0
   -2.1697   -0.3590   -1.4345 C   0  0  0  0  0  0  0  0  0  0  0  0
   -3.1635    0.2058   -2.2307 C   0  0  0  0  0  0  0  0  0  0  0  0
   -4.0091    1.1633   -1.6401 C   0  0  0  0  0  0  0  0  0  0  0  0
   -3.8405    1.5287   -0.2851 C   0  0  0  0  0  0  0  0  0  0  0  0
   -2.8246    0.9399    0.4910 C   0  0  0  0  0  0  0  0  0  0  0  0
   -2.0045   -0.0046   -0.1215 C   0  0  0  0  0  0  0  0  0  0  0  0
   -1.0040   -0.6627    0.4093 O   0  0  0  0  0  0  0  0  0  0  0  0
    3.6816    0.6544    2.9023 H   0  0  0  0  0  0  0  0  0  0  0  0
    2.9609    2.8436    2.0079 H   0  0  0  0  0  0  0  0  0  0  0  0
    1.8003    2.9741   -0.1767 H   0  0  0  0  0  0  0  0  0  0  0  0
    1.3589    0.9254   -1.4739 H   0  0  0  0  0  0  0  0  0  0  0  0
    1.8733   -1.4114   -1.9060 H   0  0  0  0  0  0  0  0  0  0  0  0
    2.8159   -2.3699   -0.7404 H   0  0  0  0  0  0  0  0  0  0  0  0
    0.5388   -3.2767   -0.8877 H   0  0  0  0  0  0  0  0  0  0  0  0
    0.7825   -2.5823    0.7484 H   0  0  0  0  0  0  0  0  0  0  0  0
   -1.0227   -1.7906   -2.6702 H   0  0  0  0  0  0  0  0  0  0  0  0
   -3.2820   -0.0802   -3.2679 H   0  0  0  0  0  0  0  0  0  0  0  0
   -4.7928    1.6234   -2.2277 H   0  0  0  0  0  0  0  0  0  0  0  0
   -4.4959    2.2668    0.1585 H   0  0  0  0  0  0  0  0  0  0  0  0
   -2.6838    1.2134    1.5285 H   0  0  0  0  0  0  0  0  0  0  0  0
  1  2  1  0
  2  3  2  0
  3  4  1  0
  4  5  2  0
  5  6  1  0
  6  7  2  0
  7  8  1  0
  8  9  1  0
  9 10  1  0
 10 11  2  0
 11 12  1  0
 12 13  2  0
 13 14  1  0
 14 15  2  0
 15 16  1  0
 16 17  2  0
 17 18  1  0
  7  2  1  0
 18 10  1  0
 17 12  1  0
  3 19  1  0
  4 20  1  0
  5 21  1  0
  6 22  1  0
  8 23  1  0
  8 24  1  0
  9 25  1  0
  9 26  1  0
 11 27  1  0
 13 28  1  0
 14 29  1  0
 15 30  1  0
 16 31  1  0
M  RAD  1   1   3
M  END
$$$$
