
     RDKit          3D

 31 33  0  0  0  0  0  0  0  0999 V2000
    2.6955   -2.4696   -0.5982 N   0  0  0  0  0  1  0  0  0  0  0  0
    3.3880   -1.2605   -0.2946 C   0  0  0  0  0  0  0  0  0  0  0  0
    4.7582   -1.3117   -0.0108 C   0  0  0  0  0  0  0  0  0  0  0  0
    5.4562   -0.1435    0.3043 C   0  0  0  0  0  0  0  0  0  0  0  0
    4.7877    1.0817    0.3420 C   0  0  0  0  0  0  0  0  0  0  0  0
    3.4203    1.1429    0.0600 C   0  0  0  0  0  0  0  0  0  0  0  0
    2.7090   -0.0232   -0.2734 C   0  0  0  0  0  0  0  0  0  0  0  0
    1.2266    0.0626   -0.5422 C   0  0  0  0  0  0  0  0  0  0  0  0
    0.4316   -0.1713    0.7445 C   0  0  0  0  0  0  0  0  0  0  0  0
   -1.0370   -0.0882    0.4732 C   0  0  0  0  0  0  0  0  0  0  0  0
   -1.7988    1.0771    0.5096 C   0  0  0  0  0  0  0  0  0  0  0  0
   -3.0642    0.6628    0.1648 C   0  0  0  0  0  0  0  0  0  0  0  0
   -4.2532    1.3759    0.0299 C   0  0  0  0  0  0  0  0  0  0  0  0
   -5.4056    0.6607   -0.3460 C   0  0  0  0  0  0  0  0  0  0  0  0
   -5.3403   -0.7325   -0.5757 C   0  0  0  0  0  0  0  0  0  0  0  0
   -4.1220   -1.4226   -0.4317 C   0  0  0  0  0  0  0  0  0  0  0  0
   -2.9993   -0.6874   -0.0583 C   0  0  0  0  0  0  0  0  0  0  0  0
   -1.7784   -1.1256    0.1270 O   0  0  0  0  0  0  0  0  0  0  0  0
    5.2826   -2.2589   -0.0304 H   0  0  0  0  0  0  0  0  0  0  0  0
    6.5150   -0.1887    0.5244 H   0  0  0  0  0  0  0  0  0  0  0  0
    5.3287    1.9848    0.5934 H   0  0  0  0  0  0  0  0  0  0  0  0
    2.9150    2.0999    0.1028 H   0  0  0  0  0  0  0  0  0  0  0  0
    0.9759    1.0645   -0.9566 H   0  0  0  0  0  0  0  0  0  0  0  0
    0.9329   -0.6859   -1.3103 H   0  0  0  0  0  0  0  0  0  0  0  0
    0.6654   -1.1768    1.1564 H   0  0  0  0  0  0  0  0  0  0  0  0
    0.7105    0.5900    1.5057 H   0  0  0  0  0  0  0  0  0  0  0  0
   -1.4694    2.0801    0.7478 H   0  0  0  0  0  0  0  0  0  0  0  0
   -4.2912    2.4430    0.2075 H   0  0  0  0  0  0  0  0  0  0  0  0
   -6.3475    1.1811   -0.4603 H   0  0  0  0  0  0  0  0  0  0  0  0
   -6.2327   -1.2723   -0.8646 H   0  0  0  0  0  0  0  0  0  0  0  0
   -4.0594   -2.4887   -0.6060 H   0  0  0  0  0  0  0  0  0  0  0  0
  1  2  1  0
  2  3  2  0
  3  4  1  0
  4  5  2  0
  5  6  1  0
  6  7  2  0
  7  8  1  0
  8  9  1  0
  9 10  1  0
 10 11  2  0
 11 12  1  0
 12 13  2  0
 13 14  1  0
 14 15  2  0
 15 16  1  0
 16 17  2  0
 17 18  1  0
  7  2  1  0
 18 10  1  0
 17 12  1  0
  3 19  1  0
  4 20  1  0
  5 21  1  0
  6 22  1  0
  8 23  1  0
  8 24  1  0
  9 25  1  0
  9 26  1  0
 11 27  1  0
 13 28  1  0
 14 29  1  0
 15 30  1  0
 16 31  1  0
M  RAD  1   1   3
M  END
$$$$
