
     RDKit          3D

 31 33  0  0  0  0  0  0  0  0999 V2000
    2.6629   -1.6823    2.0169 N   0  0  0  0  0  1  0  0  0  0  0  0
    3.3683   -0.9988    0.9831 C   0  0  0  0  0  0  0  0  0  0  0  0
    4.7529   -0.8269    1.1002 C   0  0  0  0  0  0  0  0  0  0  0  0
    5.4646   -0.1477    0.1085 C   0  0  0  0  0  0  0  0  0  0  0  0
    4.7956    0.3675   -1.0034 C   0  0  0  0  0  0  0  0  0  0  0  0
    3.4138    0.2008   -1.1292 C   0  0  0  0  0  0  0  0  0  0  0  0
    2.6878   -0.4939   -0.1458 C   0  0  0  0  0  0  0  0  0  0  0  0
    1.1919   -0.6332   -0.2871 C   0  0  0  0  0  0  0  0  0  0  0  0
    0.4748    0.5219    0.4158 C   0  0  0  0  0  0  0  0  0  0  0  0
   -1.0075    0.3786    0.2758 C   0  0  0  0  0  0  0  0  0  0  0  0
   -1.7695    0.8760   -0.7783 C   0  0  0  0  0  0  0  0  0  0  0  0
   -3.0517    0.4730   -0.4863 C   0  0  0  0  0  0  0  0  0  0  0  0
   -4.2488    0.6700   -1.1708 C   0  0  0  0  0  0  0  0  0  0  0  0
   -5.4191    0.1229   -0.6123 C   0  0  0  0  0  0  0  0  0  0  0  0
   -5.3631   -0.5996    0.6013 C   0  0  0  0  0  0  0  0  0  0  0  0
   -4.1362   -0.7815    1.2668 C   0  0  0  0  0  0  0  0  0  0  0  0
   -2.9958   -0.2278    0.6896 C   0  0  0  0  0  0  0  0  0  0  0  0
   -1.7647   -0.2799    1.1353 O   0  0  0  0  0  0  0  0  0  0  0  0
    5.2783   -1.2167    1.9632 H   0  0  0  0  0  0  0  0  0  0  0  0
    6.5347   -0.0163    0.2046 H   0  0  0  0  0  0  0  0  0  0  0  0
    5.3477    0.8997   -1.7673 H   0  0  0  0  0  0  0  0  0  0  0  0
    2.9089    0.6148   -1.9934 H   0  0  0  0  0  0  0  0  0  0  0  0
    0.9140   -0.6420   -1.3646 H   0  0  0  0  0  0  0  0  0  0  0  0
    0.8558   -1.6035    0.1397 H   0  0  0  0  0  0  0  0  0  0  0  0
    0.7356    0.5279    1.4962 H   0  0  0  0  0  0  0  0  0  0  0  0
    0.7957    1.4911   -0.0250 H   0  0  0  0  0  0  0  0  0  0  0  0
   -1.4298    1.4437   -1.6348 H   0  0  0  0  0  0  0  0  0  0  0  0
   -4.2797    1.2244   -2.1000 H   0  0  0  0  0  0  0  0  0  0  0  0
   -6.3678    0.2560   -1.1158 H   0  0  0  0  0  0  0  0  0  0  0  0
   -6.2692   -1.0163    1.0214 H   0  0  0  0  0  0  0  0  0  0  0  0
   -4.0806   -1.3337    2.1958 H   0  0  0  0  0  0  0  0  0  0  0  0
  1  2  1  0
  2  3  2  0
  3  4  1  0
  4  5  2  0
  5  6  1  0
  6  7  2  0
  7  8  1  0
  8  9  1  0
  9 10  1  0
 10 11  2  0
 11 12  1  0
 12 13  2  0
 13 14  1  0
 14 15  2  0
 15 16  1  0
 16 17  2  0
 17 18  1  0
  7  2  1  0
 18 10  1  0
 17 12  1  0
  3 19  1  0
  4 20  1  0
  5 21  1  0
  6 22  1  0
  8 23  1  0
  8 24  1  0
  9 25  1  0
  9 26  1  0
 11 27  1  0
 13 28  1  0
 14 29  1  0
 15 30  1  0
 16 31  1  0
M  RAD  1   1   3
M  END
$$$$
