
     RDKit          3D

 31 33  0  0  0  0  0  0  0  0999 V2000
   -2.7785    0.7572    2.4380 N   0  0  0  0  0  1  0  0  0  0  0  0
   -3.4248    0.4963    1.1939 C   0  0  0  0  0  0  0  0  0  0  0  0
   -4.8099    0.2924    1.1740 C   0  0  0  0  0  0  0  0  0  0  0  0
   -5.4644    0.0202   -0.0297 C   0  0  0  0  0  0  0  0  0  0  0  0
   -4.7375   -0.0543   -1.2194 C   0  0  0  0  0  0  0  0  0  0  0  0
   -3.3548    0.1480   -1.2096 C   0  0  0  0  0  0  0  0  0  0  0  0
   -2.6858    0.4376   -0.0074 C   0  0  0  0  0  0  0  0  0  0  0  0
   -1.1879    0.6201   -0.0164 C   0  0  0  0  0  0  0  0  0  0  0  0
   -0.4817   -0.7110    0.2518 C   0  0  0  0  0  0  0  0  0  0  0  0
    1.0025   -0.5252    0.2448 C   0  0  0  0  0  0  0  0  0  0  0  0
    1.8194   -0.6039   -0.8803 C   0  0  0  0  0  0  0  0  0  0  0  0
    3.0798   -0.3338   -0.4005 C   0  0  0  0  0  0  0  0  0  0  0  0
    4.3095   -0.2670   -1.0516 C   0  0  0  0  0  0  0  0  0  0  0  0
    5.4437    0.0403   -0.2770 C   0  0  0  0  0  0  0  0  0  0  0  0
    5.3207    0.2712    1.1121 C   0  0  0  0  0  0  0  0  0  0  0  0
    4.0625    0.1971    1.7386 C   0  0  0  0  0  0  0  0  0  0  0  0
    2.9591   -0.1093    0.9456 C   0  0  0  0  0  0  0  0  0  0  0  0
    1.7087   -0.2242    1.3202 O   0  0  0  0  0  0  0  0  0  0  0  0
   -5.3801    0.3409    2.0933 H   0  0  0  0  0  0  0  0  0  0  0  0
   -6.5351   -0.1381   -0.0394 H   0  0  0  0  0  0  0  0  0  0  0  0
   -5.2453   -0.2724   -2.1500 H   0  0  0  0  0  0  0  0  0  0  0  0
   -2.8046    0.0774   -2.1399 H   0  0  0  0  0  0  0  0  0  0  0  0
   -0.8888    1.3687    0.7496 H   0  0  0  0  0  0  0  0  0  0  0  0
   -0.8628    1.0209   -1.0023 H   0  0  0  0  0  0  0  0  0  0  0  0
   -0.7900   -1.1101    1.2423 H   0  0  0  0  0  0  0  0  0  0  0  0
   -0.7650   -1.4535   -0.5261 H   0  0  0  0  0  0  0  0  0  0  0  0
    1.5284   -0.8210   -1.8998 H   0  0  0  0  0  0  0  0  0  0  0  0
    4.3916   -0.4448   -2.1161 H   0  0  0  0  0  0  0  0  0  0  0  0
    6.4160    0.1005   -0.7482 H   0  0  0  0  0  0  0  0  0  0  0  0
    6.1995    0.5071    1.6980 H   0  0  0  0  0  0  0  0  0  0  0  0
    3.9557    0.3731    2.8010 H   0  0  0  0  0  0  0  0  0  0  0  0
  1  2  1  0
  2  3  2  0
  3  4  1  0
  4  5  2  0
  5  6  1  0
  6  7  2  0
  7  8  1  0
  8  9  1  0
  9 10  1  0
 10 11  2  0
 11 12  1  0
 12 13  2  0
 13 14  1  0
 14 15  2  0
 15 16  1  0
 16 17  2  0
 17 18  1  0
  7  2  1  0
 18 10  1  0
 17 12  1  0
  3 19  1  0
  4 20  1  0
  5 21  1  0
  6 22  1  0
  8 23  1  0
  8 24  1  0
  9 25  1  0
  9 26  1  0
 11 27  1  0
 13 28  1  0
 14 29  1  0
 15 30  1  0
 16 31  1  0
M  RAD  1   1   3
M  END
$$$$
