
     RDKit          3D

 31 33  0  0  0  0  0  0  0  0999 V2000
    3.8942   -1.6503    0.2355 N   0  0  0  0  0  1  0  0  0  0  0  0
    3.2820   -0.4164   -0.1331 C   0  0  0  0  0  0  0  0  0  0  0  0
    3.7891    0.7800    0.3883 C   0  0  0  0  0  0  0  0  0  0  0  0
    3.1995    2.0008    0.0518 C   0  0  0  0  0  0  0  0  0  0  0  0
    2.0992    2.0326   -0.8069 C   0  0  0  0  0  0  0  0  0  0  0  0
    1.5874    0.8442   -1.3340 C   0  0  0  0  0  0  0  0  0  0  0  0
    2.1756   -0.3912   -1.0089 C   0  0  0  0  0  0  0  0  0  0  0  0
    1.5755   -1.6682   -1.5521 C   0  0  0  0  0  0  0  0  0  0  0  0
    0.6291   -2.3283   -0.5415 C   0  0  0  0  0  0  0  0  0  0  0  0
   -0.5628   -1.4644   -0.2635 C   0  0  0  0  0  0  0  0  0  0  0  0
   -0.7046   -0.6158    0.8317 C   0  0  0  0  0  0  0  0  0  0  0  0
   -1.9201   -0.0057    0.6295 C   0  0  0  0  0  0  0  0  0  0  0  0
   -2.5983    0.9494    1.3831 C   0  0  0  0  0  0  0  0  0  0  0  0
   -3.8453    1.3941    0.9056 C   0  0  0  0  0  0  0  0  0  0  0  0
   -4.3751    0.8798   -0.2997 C   0  0  0  0  0  0  0  0  0  0  0  0
   -3.6620   -0.0829   -1.0386 C   0  0  0  0  0  0  0  0  0  0  0  0
   -2.4310   -0.5031   -0.5403 C   0  0  0  0  0  0  0  0  0  0  0  0
   -1.6076   -1.3755   -1.0673 O   0  0  0  0  0  0  0  0  0  0  0  0
    4.6392    0.7638    1.0589 H   0  0  0  0  0  0  0  0  0  0  0  0
    3.5937    2.9225    0.4598 H   0  0  0  0  0  0  0  0  0  0  0  0
    1.6394    2.9788   -1.0613 H   0  0  0  0  0  0  0  0  0  0  0  0
    0.7252    0.8861   -1.9883 H   0  0  0  0  0  0  0  0  0  0  0  0
    2.3871   -2.3829   -1.8080 H   0  0  0  0  0  0  0  0  0  0  0  0
    1.0263   -1.4674   -2.4987 H   0  0  0  0  0  0  0  0  0  0  0  0
    0.2762   -3.2963   -0.9568 H   0  0  0  0  0  0  0  0  0  0  0  0
    1.1702   -2.5460    0.4048 H   0  0  0  0  0  0  0  0  0  0  0  0
   -0.0084   -0.4577    1.6452 H   0  0  0  0  0  0  0  0  0  0  0  0
   -2.1820    1.3373    2.3039 H   0  0  0  0  0  0  0  0  0  0  0  0
   -4.4016    2.1351    1.4648 H   0  0  0  0  0  0  0  0  0  0  0  0
   -5.3346    1.2294   -0.6578 H   0  0  0  0  0  0  0  0  0  0  0  0
   -4.0559   -0.4818   -1.9641 H   0  0  0  0  0  0  0  0  0  0  0  0
  1  2  1  0
  2  3  2  0
  3  4  1  0
  4  5  2  0
  5  6  1  0
  6  7  2  0
  7  8  1  0
  8  9  1  0
  9 10  1  0
 10 11  2  0
 11 12  1  0
 12 13  2  0
 13 14  1  0
 14 15  2  0
 15 16  1  0
 16 17  2  0
 17 18  1  0
  7  2  1  0
 18 10  1  0
 17 12  1  0
  3 19  1  0
  4 20  1  0
  5 21  1  0
  6 22  1  0
  8 23  1  0
  8 24  1  0
  9 25  1  0
  9 26  1  0
 11 27  1  0
 13 28  1  0
 14 29  1  0
 15 30  1  0
 16 31  1  0
M  RAD  1   1   3
M  END
$$$$
