
     RDKit          3D

 31 33  0  0  0  0  0  0  0  0999 V2000
   -2.7496    2.3449    0.8803 N   0  0  0  0  0  1  0  0  0  0  0  0
   -3.4146    1.1385    0.5113 C   0  0  0  0  0  0  0  0  0  0  0  0
   -4.7914    1.1681    0.2584 C   0  0  0  0  0  0  0  0  0  0  0  0
   -5.4632    0.0031   -0.1193 C   0  0  0  0  0  0  0  0  0  0  0  0
   -4.7617   -1.1970   -0.2508 C   0  0  0  0  0  0  0  0  0  0  0  0
   -3.3875   -1.2365   -0.0002 C   0  0  0  0  0  0  0  0  0  0  0  0
   -2.7019   -0.0744    0.3952 C   0  0  0  0  0  0  0  0  0  0  0  0
   -1.2123   -0.1342    0.6287 C   0  0  0  0  0  0  0  0  0  0  0  0
   -0.4520    0.2064   -0.6551 C   0  0  0  0  0  0  0  0  0  0  0  0
    1.0239    0.1487   -0.4187 C   0  0  0  0  0  0  0  0  0  0  0  0
    1.8169   -0.9889   -0.5469 C   0  0  0  0  0  0  0  0  0  0  0  0
    3.0774   -0.5613   -0.2003 C   0  0  0  0  0  0  0  0  0  0  0  0
    4.2885   -1.2466   -0.1361 C   0  0  0  0  0  0  0  0  0  0  0  0
    5.4283   -0.5242    0.2636 C   0  0  0  0  0  0  0  0  0  0  0  0
    5.3291    0.8485    0.5859 C   0  0  0  0  0  0  0  0  0  0  0  0
    4.0892    1.5106    0.5117 C   0  0  0  0  0  0  0  0  0  0  0  0
    2.9797    0.7689    0.1127 C   0  0  0  0  0  0  0  0  0  0  0  0
    1.7434    1.1824   -0.0194 O   0  0  0  0  0  0  0  0  0  0  0  0
   -5.3415    2.0963    0.3507 H   0  0  0  0  0  0  0  0  0  0  0  0
   -6.5273    0.0316   -0.3151 H   0  0  0  0  0  0  0  0  0  0  0  0
   -5.2826   -2.0971   -0.5505 H   0  0  0  0  0  0  0  0  0  0  0  0
   -2.8567   -2.1735   -0.1159 H   0  0  0  0  0  0  0  0  0  0  0  0
   -0.9249   -1.1533    0.9712 H   0  0  0  0  0  0  0  0  0  0  0  0
   -0.9231    0.5708    1.4386 H   0  0  0  0  0  0  0  0  0  0  0  0
   -0.7258   -0.5114   -1.4592 H   0  0  0  0  0  0  0  0  0  0  0  0
   -0.7225    1.2294   -0.9951 H   0  0  0  0  0  0  0  0  0  0  0  0
    1.5106   -1.9834   -0.8442 H   0  0  0  0  0  0  0  0  0  0  0  0
    4.3524   -2.2982   -0.3844 H   0  0  0  0  0  0  0  0  0  0  0  0
    6.3866   -1.0232    0.3247 H   0  0  0  0  0  0  0  0  0  0  0  0
    6.2120    1.3941    0.8923 H   0  0  0  0  0  0  0  0  0  0  0  0
    4.0007    2.5608    0.7571 H   0  0  0  0  0  0  0  0  0  0  0  0
  1  2  1  0
  2  3  2  0
  3  4  1  0
  4  5  2  0
  5  6  1  0
  6  7  2  0
  7  8  1  0
  8  9  1  0
  9 10  1  0
 10 11  2  0
 11 12  1  0
 12 13  2  0
 13 14  1  0
 14 15  2  0
 15 16  1  0
 16 17  2  0
 17 18  1  0
  7  2  1  0
 18 10  1  0
 17 12  1  0
  3 19  1  0
  4 20  1  0
  5 21  1  0
  6 22  1  0
  8 23  1  0
  8 24  1  0
  9 25  1  0
  9 26  1  0
 11 27  1  0
 13 28  1  0
 14 29  1  0
 15 30  1  0
 16 31  1  0
M  RAD  1   1   3
M  END
$$$$
