
     RDKit          3D

 31 33  0  0  0  0  0  0  0  0999 V2000
   -2.4698   -2.6613   -0.6813 N   0  0  0  0  0  1  0  0  0  0  0  0
   -3.2653   -1.5320   -0.3271 C   0  0  0  0  0  0  0  0  0  0  0  0
   -4.6387   -1.5524   -0.5990 C   0  0  0  0  0  0  0  0  0  0  0  0
   -5.4371   -0.4528   -0.2755 C   0  0  0  0  0  0  0  0  0  0  0  0
   -4.8663    0.6751    0.3173 C   0  0  0  0  0  0  0  0  0  0  0  0
   -3.4966    0.7048    0.5928 C   0  0  0  0  0  0  0  0  0  0  0  0
   -2.6844   -0.4011    0.2861 C   0  0  0  0  0  0  0  0  0  0  0  0
   -1.2025   -0.3335    0.5629 C   0  0  0  0  0  0  0  0  0  0  0  0
   -0.4492    0.1894   -0.6624 C   0  0  0  0  0  0  0  0  0  0  0  0
    1.0193    0.2522   -0.3849 C   0  0  0  0  0  0  0  0  0  0  0  0
    1.6875    1.3364    0.1786 C   0  0  0  0  0  0  0  0  0  0  0  0
    2.9948    0.9177    0.2656 C   0  0  0  0  0  0  0  0  0  0  0  0
    4.1306    1.5650    0.7466 C   0  0  0  0  0  0  0  0  0  0  0  0
    5.3496    0.8627    0.7069 C   0  0  0  0  0  0  0  0  0  0  0  0
    5.4011   -0.4535    0.1943 C   0  0  0  0  0  0  0  0  0  0  0  0
    4.2339   -1.0791   -0.2827 C   0  0  0  0  0  0  0  0  0  0  0  0
    3.0430   -0.3584   -0.2306 C   0  0  0  0  0  0  0  0  0  0  0  0
    1.8522   -0.7473   -0.6149 O   0  0  0  0  0  0  0  0  0  0  0  0
   -5.0879   -2.4203   -1.0656 H   0  0  0  0  0  0  0  0  0  0  0  0
   -6.4979   -0.4731   -0.4892 H   0  0  0  0  0  0  0  0  0  0  0  0
   -5.4853    1.5291    0.5607 H   0  0  0  0  0  0  0  0  0  0  0  0
   -3.0683    1.5912    1.0443 H   0  0  0  0  0  0  0  0  0  0  0  0
   -0.8190   -1.3391    0.8426 H   0  0  0  0  0  0  0  0  0  0  0  0
   -1.0111    0.3367    1.4304 H   0  0  0  0  0  0  0  0  0  0  0  0
   -0.6233   -0.4838   -1.5296 H   0  0  0  0  0  0  0  0  0  0  0  0
   -0.8185    1.2038   -0.9297 H   0  0  0  0  0  0  0  0  0  0  0  0
    1.2723    2.2878    0.4844 H   0  0  0  0  0  0  0  0  0  0  0  0
    4.0792    2.5730    1.1376 H   0  0  0  0  0  0  0  0  0  0  0  0
    6.2532    1.3337    1.0715 H   0  0  0  0  0  0  0  0  0  0  0  0
    6.3438   -0.9843    0.1689 H   0  0  0  0  0  0  0  0  0  0  0  0
    4.2606   -2.0868   -0.6763 H   0  0  0  0  0  0  0  0  0  0  0  0
  1  2  1  0
  2  3  2  0
  3  4  1  0
  4  5  2  0
  5  6  1  0
  6  7  2  0
  7  8  1  0
  8  9  1  0
  9 10  1  0
 10 11  2  0
 11 12  1  0
 12 13  2  0
 13 14  1  0
 14 15  2  0
 15 16  1  0
 16 17  2  0
 17 18  1  0
  7  2  1  0
 18 10  1  0
 17 12  1  0
  3 19  1  0
  4 20  1  0
  5 21  1  0
  6 22  1  0
  8 23  1  0
  8 24  1  0
  9 25  1  0
  9 26  1  0
 11 27  1  0
 13 28  1  0
 14 29  1  0
 15 30  1  0
 16 31  1  0
M  RAD  1   1   3
M  END
$$$$
