
     RDKit          3D

 31 33  0  0  0  0  0  0  0  0999 V2000
   -2.5145    1.8674    1.9802 N   0  0  0  0  0  1  0  0  0  0  0  0
   -3.2811    0.9126    1.2492 C   0  0  0  0  0  0  0  0  0  0  0  0
   -4.6725    1.0571    1.1882 C   0  0  0  0  0  0  0  0  0  0  0  0
   -5.4443    0.1438    0.4662 C   0  0  0  0  0  0  0  0  0  0  0  0
   -4.8294   -0.9163   -0.2027 C   0  0  0  0  0  0  0  0  0  0  0  0
   -3.4414   -1.0690   -0.1475 C   0  0  0  0  0  0  0  0  0  0  0  0
   -2.6542   -0.1656    0.5880 C   0  0  0  0  0  0  0  0  0  0  0  0
   -1.1545   -0.3317    0.6065 C   0  0  0  0  0  0  0  0  0  0  0  0
   -0.5093    0.4774   -0.5211 C   0  0  0  0  0  0  0  0  0  0  0  0
    0.9772    0.3122   -0.4976 C   0  0  0  0  0  0  0  0  0  0  0  0
    1.6870   -0.6930   -1.1497 C   0  0  0  0  0  0  0  0  0  0  0  0
    2.9983   -0.4526   -0.8114 C   0  0  0  0  0  0  0  0  0  0  0  0
    4.1686   -1.1234   -1.1595 C   0  0  0  0  0  0  0  0  0  0  0  0
    5.3823   -0.6315   -0.6438 C   0  0  0  0  0  0  0  0  0  0  0  0
    5.3947    0.5043    0.1974 C   0  0  0  0  0  0  0  0  0  0  0  0
    4.1935    1.1580    0.5307 C   0  0  0  0  0  0  0  0  0  0  0  0
    3.0088    0.6478    0.0046 C   0  0  0  0  0  0  0  0  0  0  0  0
    1.7911    1.0957    0.1875 O   0  0  0  0  0  0  0  0  0  0  0  0
   -5.1566    1.8808    1.6978 H   0  0  0  0  0  0  0  0  0  0  0  0
   -6.5194    0.2608    0.4210 H   0  0  0  0  0  0  0  0  0  0  0  0
   -5.4284   -1.6189   -0.7676 H   0  0  0  0  0  0  0  0  0  0  0  0
   -2.9794   -1.8914   -0.6798 H   0  0  0  0  0  0  0  0  0  0  0  0
   -0.8927   -1.4069    0.4888 H   0  0  0  0  0  0  0  0  0  0  0  0
   -0.7454   -0.0066    1.5880 H   0  0  0  0  0  0  0  0  0  0  0  0
   -0.7538    1.5550   -0.4016 H   0  0  0  0  0  0  0  0  0  0  0  0
   -0.9033    0.1381   -1.5041 H   0  0  0  0  0  0  0  0  0  0  0  0
    1.2959   -1.4858   -1.7739 H   0  0  0  0  0  0  0  0  0  0  0  0
    4.1470   -1.9928   -1.8039 H   0  0  0  0  0  0  0  0  0  0  0  0
    6.3118   -1.1266   -0.8929 H   0  0  0  0  0  0  0  0  0  0  0  0
    6.3337    0.8736    0.5885 H   0  0  0  0  0  0  0  0  0  0  0  0
    4.1902    2.0276    1.1747 H   0  0  0  0  0  0  0  0  0  0  0  0
  1  2  1  0
  2  3  2  0
  3  4  1  0
  4  5  2  0
  5  6  1  0
  6  7  2  0
  7  8  1  0
  8  9  1  0
  9 10  1  0
 10 11  2  0
 11 12  1  0
 12 13  2  0
 13 14  1  0
 14 15  2  0
 15 16  1  0
 16 17  2  0
 17 18  1  0
  7  2  1  0
 18 10  1  0
 17 12  1  0
  3 19  1  0
  4 20  1  0
  5 21  1  0
  6 22  1  0
  8 23  1  0
  8 24  1  0
  9 25  1  0
  9 26  1  0
 11 27  1  0
 13 28  1  0
 14 29  1  0
 15 30  1  0
 16 31  1  0
M  RAD  1   1   3
M  END
$$$$
