
     RDKit          3D

 31 33  0  0  0  0  0  0  0  0999 V2000
    3.8543   -1.8434    0.1549 N   0  0  0  0  0  1  0  0  0  0  0  0
    3.2782   -0.5444    0.0361 C   0  0  0  0  0  0  0  0  0  0  0  0
    3.8134    0.5109    0.7847 C   0  0  0  0  0  0  0  0  0  0  0  0
    3.2589    1.7899    0.6956 C   0  0  0  0  0  0  0  0  0  0  0  0
    2.1655    2.0210   -0.1412 C   0  0  0  0  0  0  0  0  0  0  0  0
    1.6260    0.9748   -0.8940 C   0  0  0  0  0  0  0  0  0  0  0  0
    2.1795   -0.3160   -0.8196 C   0  0  0  0  0  0  0  0  0  0  0  0
    1.5505   -1.4428   -1.6075 C   0  0  0  0  0  0  0  0  0  0  0  0
    0.5641   -2.2519   -0.7559 C   0  0  0  0  0  0  0  0  0  0  0  0
   -0.5953   -1.4120   -0.3151 C   0  0  0  0  0  0  0  0  0  0  0  0
   -1.7148   -1.1128   -1.0871 C   0  0  0  0  0  0  0  0  0  0  0  0
   -2.4630   -0.2817   -0.2863 C   0  0  0  0  0  0  0  0  0  0  0  0
   -3.6839    0.3491   -0.5138 C   0  0  0  0  0  0  0  0  0  0  0  0
   -4.2025    1.1596    0.5134 C   0  0  0  0  0  0  0  0  0  0  0  0
   -3.4948    1.3181    1.7266 C   0  0  0  0  0  0  0  0  0  0  0  0
   -2.2620    0.6678    1.9231 C   0  0  0  0  0  0  0  0  0  0  0  0
   -1.7754   -0.1277    0.8886 C   0  0  0  0  0  0  0  0  0  0  0  0
   -0.6571   -0.8091    0.8590 O   0  0  0  0  0  0  0  0  0  0  0  0
    4.6580    0.3391    1.4402 H   0  0  0  0  0  0  0  0  0  0  0  0
    3.6746    2.6016    1.2785 H   0  0  0  0  0  0  0  0  0  0  0  0
    1.7327    3.0110   -0.2040 H   0  0  0  0  0  0  0  0  0  0  0  0
    0.7702    1.1690   -1.5288 H   0  0  0  0  0  0  0  0  0  0  0  0
    1.0266   -1.0435   -2.5041 H   0  0  0  0  0  0  0  0  0  0  0  0
    2.3433   -2.1227   -1.9871 H   0  0  0  0  0  0  0  0  0  0  0  0
    0.1857   -3.1090   -1.3535 H   0  0  0  0  0  0  0  0  0  0  0  0
    1.0814   -2.6657    0.1363 H   0  0  0  0  0  0  0  0  0  0  0  0
   -1.9372   -1.4446   -2.0928 H   0  0  0  0  0  0  0  0  0  0  0  0
   -4.2161    0.2220   -1.4477 H   0  0  0  0  0  0  0  0  0  0  0  0
   -5.1489    1.6653    0.3727 H   0  0  0  0  0  0  0  0  0  0  0  0
   -3.9025    1.9445    2.5093 H   0  0  0  0  0  0  0  0  0  0  0  0
   -1.7095    0.7836    2.8463 H   0  0  0  0  0  0  0  0  0  0  0  0
  1  2  1  0
  2  3  2  0
  3  4  1  0
  4  5  2  0
  5  6  1  0
  6  7  2  0
  7  8  1  0
  8  9  1  0
  9 10  1  0
 10 11  2  0
 11 12  1  0
 12 13  2  0
 13 14  1  0
 14 15  2  0
 15 16  1  0
 16 17  2  0
 17 18  1  0
  7  2  1  0
 18 10  1  0
 17 12  1  0
  3 19  1  0
  4 20  1  0
  5 21  1  0
  6 22  1  0
  8 23  1  0
  8 24  1  0
  9 25  1  0
  9 26  1  0
 11 27  1  0
 13 28  1  0
 14 29  1  0
 15 30  1  0
 16 31  1  0
M  RAD  1   1   3
M  END
$$$$
