
     RDKit          3D

 31 33  0  0  0  0  0  0  0  0999 V2000
    1.7623   -3.1188   -1.1097 N   0  0  0  0  0  1  0  0  0  0  0  0
    2.8107   -2.1919   -0.8355 C   0  0  0  0  0  0  0  0  0  0  0  0
    4.1174   -2.5030   -1.2312 C   0  0  0  0  0  0  0  0  0  0  0  0
    5.1595   -1.6052   -0.9876 C   0  0  0  0  0  0  0  0  0  0  0  0
    4.9006   -0.3896   -0.3515 C   0  0  0  0  0  0  0  0  0  0  0  0
    3.5998   -0.0704    0.0473 C   0  0  0  0  0  0  0  0  0  0  0  0
    2.5444   -0.9715   -0.1782 C   0  0  0  0  0  0  0  0  0  0  0  0
    1.1429   -0.5911    0.2320 C   0  0  0  0  0  0  0  0  0  0  0  0
    0.4126    0.0989   -0.9225 C   0  0  0  0  0  0  0  0  0  0  0  0
   -0.9769    0.4716   -0.5129 C   0  0  0  0  0  0  0  0  0  0  0  0
   -1.3427    1.6658    0.1032 C   0  0  0  0  0  0  0  0  0  0  0  0
   -2.6961    1.5365    0.3111 C   0  0  0  0  0  0  0  0  0  0  0  0
   -3.6180    2.4057    0.8900 C   0  0  0  0  0  0  0  0  0  0  0  0
   -4.9581    1.9823    0.9651 C   0  0  0  0  0  0  0  0  0  0  0  0
   -5.3376    0.7153    0.4665 C   0  0  0  0  0  0  0  0  0  0  0  0
   -4.3801   -0.1395   -0.1114 C   0  0  0  0  0  0  0  0  0  0  0  0
   -3.0623    0.3078   -0.1717 C   0  0  0  0  0  0  0  0  0  0  0  0
   -2.0227   -0.3223   -0.6607 O   0  0  0  0  0  0  0  0  0  0  0  0
    4.3254   -3.4403   -1.7319 H   0  0  0  0  0  0  0  0  0  0  0  0
    6.1675   -1.8498   -1.2968 H   0  0  0  0  0  0  0  0  0  0  0  0
    5.7081    0.3079   -0.1701 H   0  0  0  0  0  0  0  0  0  0  0  0
    3.4147    0.8808    0.5312 H   0  0  0  0  0  0  0  0  0  0  0  0
    1.1791    0.0920    1.1096 H   0  0  0  0  0  0  0  0  0  0  0  0
    0.5788   -1.4948    0.5509 H   0  0  0  0  0  0  0  0  0  0  0  0
    0.9660    1.0139   -1.2278 H   0  0  0  0  0  0  0  0  0  0  0  0
    0.3590   -0.5835   -1.7982 H   0  0  0  0  0  0  0  0  0  0  0  0
   -0.7066    2.5014    0.3649 H   0  0  0  0  0  0  0  0  0  0  0  0
   -3.3158    3.3734    1.2693 H   0  0  0  0  0  0  0  0  0  0  0  0
   -5.7025    2.6310    1.4079 H   0  0  0  0  0  0  0  0  0  0  0  0
   -6.3708    0.3998    0.5298 H   0  0  0  0  0  0  0  0  0  0  0  0
   -4.6584   -1.1122   -0.4954 H   0  0  0  0  0  0  0  0  0  0  0  0
  1  2  1  0
  2  3  2  0
  3  4  1  0
  4  5  2  0
  5  6  1  0
  6  7  2  0
  7  8  1  0
  8  9  1  0
  9 10  1  0
 10 11  2  0
 11 12  1  0
 12 13  2  0
 13 14  1  0
 14 15  2  0
 15 16  1  0
 16 17  2  0
 17 18  1  0
  7  2  1  0
 18 10  1  0
 17 12  1  0
  3 19  1  0
  4 20  1  0
  5 21  1  0
  6 22  1  0
  8 23  1  0
  8 24  1  0
  9 25  1  0
  9 26  1  0
 11 27  1  0
 13 28  1  0
 14 29  1  0
 15 30  1  0
 16 31  1  0
M  RAD  1   1   3
M  END
$$$$
