 xtb: 6.7.1 (edcfbbe)
          07312615163D

245266  0     0  0            999 V2000
    0.2191   -1.8025   -0.9031 N   0  0  0  0  0  0  0  0  0  0  0  0
   -0.0168   -1.1260    1.8549 N   0  0  0  0  0  0  0  0  0  0  0  0
   -0.3620   -1.0318   -3.1913 C   0  0  0  0  0  0  0  0  0  0  0  0
    0.0660   -1.9964   -2.2522 C   0  0  0  0  0  0  0  0  0  0  0  0
    0.4680   -3.3457   -2.6026 C   0  0  0  0  0  0  0  0  0  0  0  0
    0.4365   -3.7597   -3.6115 H   0  0  0  0  0  0  0  0  0  0  0  0
    0.8901   -3.9433   -1.4485 C   0  0  0  0  0  0  0  0  0  0  0  0
    1.2766   -4.9540   -1.3113 H   0  0  0  0  0  0  0  0  0  0  0  0
    0.6987   -2.9810   -0.3805 C   0  0  0  0  0  0  0  0  0  0  0  0
    0.8822   -3.2721    0.9855 C   0  0  0  0  0  0  0  0  0  0  0  0
    0.4778   -2.3960    2.0127 C   0  0  0  0  0  0  0  0  0  0  0  0
    0.4039   -2.7737    3.4117 C   0  0  0  0  0  0  0  0  0  0  0  0
    0.7335   -3.7342    3.8103 H   0  0  0  0  0  0  0  0  0  0  0  0
   -0.1845   -1.7348    4.0747 C   0  0  0  0  0  0  0  0  0  0  0  0
   -0.4306   -1.6531    5.1342 H   0  0  0  0  0  0  0  0  0  0  0  0
   -0.4315   -0.6975    3.0906 C   0  0  0  0  0  0  0  0  0  0  0  0
    1.4203   -4.6244    1.3721 C   0  0  0  0  0  0  0  0  0  0  0  0
    2.7612   -4.7793    1.7971 C   0  0  0  0  0  0  0  0  0  0  0  0
    3.2723   -6.0374    2.1639 C   0  0  0  0  0  0  0  0  0  0  0  0
    2.4382   -7.1573    2.0977 C   0  0  0  0  0  0  0  0  0  0  0  0
    2.8360   -8.1431    2.3726 H   0  0  0  0  0  0  0  0  0  0  0  0
    1.1082   -7.0444    1.6843 C   0  0  0  0  0  0  0  0  0  0  0  0
    0.6013   -5.7787    1.3337 C   0  0  0  0  0  0  0  0  0  0  0  0
   -0.7560    1.5566    1.1256 N   0  0  0  0  0  0  0  0  0  0  0  0
   -0.4723    0.8875   -1.6153 N   0  0  0  0  0  0  0  0  0  0  0  0
   -0.9861    0.5633    3.3947 C   0  0  0  0  0  0  0  0  0  0  0  0
   -1.0713    1.6183    2.4593 C   0  0  0  0  0  0  0  0  0  0  0  0
   -1.4403    2.9759    2.8076 C   0  0  0  0  0  0  0  0  0  0  0  0
   -1.7555    3.2947    3.8020 H   0  0  0  0  0  0  0  0  0  0  0  0
   -1.2955    3.7292    1.6756 C   0  0  0  0  0  0  0  0  0  0  0  0
   -1.4757    4.7966    1.5448 H   0  0  0  0  0  0  0  0  0  0  0  0
   -0.9026    2.8242    0.6155 C   0  0  0  0  0  0  0  0  0  0  0  0
   -0.7829    3.1909   -0.7386 C   0  0  0  0  0  0  0  0  0  0  0  0
   -0.6637    2.2385   -1.7686 C   0  0  0  0  0  0  0  0  0  0  0  0
   -0.8676    2.5451   -3.1705 C   0  0  0  0  0  0  0  0  0  0  0  0
   -1.0410    3.5466   -3.5659 H   0  0  0  0  0  0  0  0  0  0  0  0
   -0.8510    1.3569   -3.8437 C   0  0  0  0  0  0  0  0  0  0  0  0
   -1.0040    1.1752   -4.9084 H   0  0  0  0  0  0  0  0  0  0  0  0
   -0.5704    0.3245   -2.8642 C   0  0  0  0  0  0  0  0  0  0  0  0
   -0.8535    4.6429   -1.1263 C   0  0  0  0  0  0  0  0  0  0  0  0
    0.3333    5.3310   -1.4795 C   0  0  0  0  0  0  0  0  0  0  0  0
    0.3000    6.6730   -1.9001 C   0  0  0  0  0  0  0  0  0  0  0  0
   -0.9263    7.3437   -1.9407 C   0  0  0  0  0  0  0  0  0  0  0  0
   -0.9562    8.3939   -2.2596 H   0  0  0  0  0  0  0  0  0  0  0  0
   -2.1156    6.7002   -1.5857 C   0  0  0  0  0  0  0  0  0  0  0  0
   -2.0781    5.3482   -1.1957 C   0  0  0  0  0  0  0  0  0  0  0  0
   -0.1614   -0.0914    0.1182 Fe  0  0  0  0  0  0  0  0  0  0  0  0
   -2.3890   -0.7137    0.0963 Cl  0  0  0  0  0  0  0  0  0  0  0  0
   -1.5685    0.7782    4.7703 C   0  0  0  0  0  0  0  0  0  0  0  0
   -0.7996    1.3175    5.8359 C   0  0  0  0  0  0  0  0  0  0  0  0
   -2.9282    0.4264    4.9989 C   0  0  0  0  0  0  0  0  0  0  0  0
   -1.3770    1.5074    7.1074 C   0  0  0  0  0  0  0  0  0  0  0  0
    0.5497    1.6643    5.5660 N   0  0  0  0  0  0  0  0  0  0  0  0
   -3.5018    0.6412    6.2707 C   0  0  0  0  0  0  0  0  0  0  0  0
   -3.6575   -0.1609    3.9379 N   0  0  0  0  0  0  0  0  0  0  0  0
   -0.7636    1.9102    7.9179 H   0  0  0  0  0  0  0  0  0  0  0  0
   -2.7206    1.1722    7.3004 C   0  0  0  0  0  0  0  0  0  0  0  0
    1.5278    2.0726    6.4449 C   0  0  0  0  0  0  0  0  0  0  0  0
    0.8206    1.5622    4.5864 H   0  0  0  0  0  0  0  0  0  0  0  0
   -4.5535    0.3861    6.4231 H   0  0  0  0  0  0  0  0  0  0  0  0
   -4.9885   -0.5293    3.9186 C   0  0  0  0  0  0  0  0  0  0  0  0
   -3.1288   -0.3379    3.0785 H   0  0  0  0  0  0  0  0  0  0  0  0
   -3.1729    1.3284    8.2883 H   0  0  0  0  0  0  0  0  0  0  0  0
    1.3839    2.1821    7.6574 O   0  0  0  0  0  0  0  0  0  0  0  0
    2.8550    2.3903    5.7882 C   0  0  0  0  0  0  0  0  0  0  0  0
   -5.7864   -0.2910    4.8201 O   0  0  0  0  0  0  0  0  0  0  0  0
   -5.4044   -1.2808    2.6768 C   0  0  0  0  0  0  0  0  0  0  0  0
    4.1117    2.0007    6.5241 C   0  0  0  0  0  0  0  0  0  0  0  0
    2.9087    2.3906    4.6942 H   0  0  0  0  0  0  0  0  0  0  0  0
    3.6989    3.4526    6.5026 C   0  0  0  0  0  0  0  0  0  0  0  0
   -6.7568   -0.9766    2.0817 C   0  0  0  0  0  0  0  0  0  0  0  0
   -4.6231   -1.5967    1.9760 H   0  0  0  0  0  0  0  0  0  0  0  0
   -6.5814   -2.2435    2.8848 C   0  0  0  0  0  0  0  0  0  0  0  0
    3.9910    1.4794    7.4768 H   0  0  0  0  0  0  0  0  0  0  0  0
    4.9732    1.7176    5.9163 H   0  0  0  0  0  0  0  0  0  0  0  0
    3.2665    3.8553    7.4219 H   0  0  0  0  0  0  0  0  0  0  0  0
    4.4800    4.4152    5.6657 C   0  0  0  0  0  0  0  0  0  0  0  0
   -7.3438   -0.1888    2.5622 H   0  0  0  0  0  0  0  0  0  0  0  0
   -6.8444   -1.0650    0.9953 H   0  0  0  0  0  0  0  0  0  0  0  0
   -7.0011   -2.2461    3.8955 H   0  0  0  0  0  0  0  0  0  0  0  0
   -6.5654   -3.5642    2.1910 C   0  0  0  0  0  0  0  0  0  0  0  0
    4.5801    5.6102    6.2716 O   0  0  0  0  0  0  0  0  0  0  0  0
    4.9770    4.1527    4.5869 O   0  0  0  0  0  0  0  0  0  0  0  0
   -7.1797   -4.5062    2.9403 O   0  0  0  0  0  0  0  0  0  0  0  0
   -6.0819   -3.7826    1.0984 O   0  0  0  0  0  0  0  0  0  0  0  0
    5.3263    6.6729    5.6070 C   0  0  0  0  0  0  0  0  0  0  0  0
   -7.2749   -5.8555    2.4035 C   0  0  0  0  0  0  0  0  0  0  0  0
    4.3486    7.5545    4.8176 C   0  0  0  0  0  0  0  0  0  0  0  0
    6.0890    7.4269    6.6953 C   0  0  0  0  0  0  0  0  0  0  0  0
    6.0246    6.1823    4.9057 H   0  0  0  0  0  0  0  0  0  0  0  0
   -7.2739   -6.8053    3.6024 C   0  0  0  0  0  0  0  0  0  0  0  0
   -8.5307   -5.9663    1.5315 C   0  0  0  0  0  0  0  0  0  0  0  0
   -6.3780   -6.0188    1.7762 H   0  0  0  0  0  0  0  0  0  0  0  0
    3.8343    6.9611    4.0440 H   0  0  0  0  0  0  0  0  0  0  0  0
    3.5980    7.9913    5.4896 H   0  0  0  0  0  0  0  0  0  0  0  0
    4.8945    8.3722    4.3270 H   0  0  0  0  0  0  0  0  0  0  0  0
    6.7617    6.7515    7.2392 H   0  0  0  0  0  0  0  0  0  0  0  0
    6.6956    8.2291    6.2543 H   0  0  0  0  0  0  0  0  0  0  0  0
    5.3985    7.8757    7.4207 H   0  0  0  0  0  0  0  0  0  0  0  0
   -6.3596   -6.6742    4.1956 H   0  0  0  0  0  0  0  0  0  0  0  0
   -8.1429   -6.6169    4.2506 H   0  0  0  0  0  0  0  0  0  0  0  0
   -7.3261   -7.8488    3.2626 H   0  0  0  0  0  0  0  0  0  0  0  0
   -8.4729   -5.2633    0.6894 H   0  0  0  0  0  0  0  0  0  0  0  0
   -8.6282   -6.9845    1.1299 H   0  0  0  0  0  0  0  0  0  0  0  0
   -9.4340   -5.7459    2.1206 H   0  0  0  0  0  0  0  0  0  0  0  0
   -0.6004   -1.4987   -4.6056 C   0  0  0  0  0  0  0  0  0  0  0  0
    0.3625   -1.2938   -5.6307 C   0  0  0  0  0  0  0  0  0  0  0  0
   -1.8052   -2.1896   -4.9111 C   0  0  0  0  0  0  0  0  0  0  0  0
    0.1562   -1.8270   -6.9185 C   0  0  0  0  0  0  0  0  0  0  0  0
    1.5075   -0.5217   -5.3083 N   0  0  0  0  0  0  0  0  0  0  0  0
   -1.9999   -2.7272   -6.2012 C   0  0  0  0  0  0  0  0  0  0  0  0
   -2.7935   -2.2695   -3.9024 N   0  0  0  0  0  0  0  0  0  0  0  0
    0.9137   -1.6633   -7.6903 H   0  0  0  0  0  0  0  0  0  0  0  0
   -1.0161   -2.5453   -7.1777 C   0  0  0  0  0  0  0  0  0  0  0  0
    2.4542    0.0165   -6.1528 C   0  0  0  0  0  0  0  0  0  0  0  0
    1.5240   -0.1925   -4.3416 H   0  0  0  0  0  0  0  0  0  0  0  0
   -2.9216   -3.2770   -6.4096 H   0  0  0  0  0  0  0  0  0  0  0  0
   -4.0252   -2.8912   -3.9510 C   0  0  0  0  0  0  0  0  0  0  0  0
   -2.5801   -1.7582   -3.0417 H   0  0  0  0  0  0  0  0  0  0  0  0
   -1.1727   -2.9675   -8.1788 H   0  0  0  0  0  0  0  0  0  0  0  0
    2.5626   -0.2410   -7.3457 O   0  0  0  0  0  0  0  0  0  0  0  0
    3.3577    1.0277   -5.4793 C   0  0  0  0  0  0  0  0  0  0  0  0
   -4.4051   -3.6084   -4.8711 O   0  0  0  0  0  0  0  0  0  0  0  0
   -4.9039   -2.5961   -2.7598 C   0  0  0  0  0  0  0  0  0  0  0  0
    3.6801    2.2756   -6.2640 C   0  0  0  0  0  0  0  0  0  0  0  0
    3.2937    1.1374   -4.3914 H   0  0  0  0  0  0  0  0  0  0  0  0
    4.7489    1.2233   -6.0818 C   0  0  0  0  0  0  0  0  0  0  0  0
   -5.8100   -3.6863   -2.2483 C   0  0  0  0  0  0  0  0  0  0  0  0
   -4.5428   -1.8757   -2.0164 H   0  0  0  0  0  0  0  0  0  0  0  0
   -6.4093   -2.5678   -3.0659 C   0  0  0  0  0  0  0  0  0  0  0  0
    3.2470    2.3561   -7.2645 H   0  0  0  0  0  0  0  0  0  0  0  0
    3.7905    3.2058   -5.7017 H   0  0  0  0  0  0  0  0  0  0  0  0
    4.9917    0.6021   -6.9479 H   0  0  0  0  0  0  0  0  0  0  0  0
    5.8729    1.5272   -5.1418 C   0  0  0  0  0  0  0  0  0  0  0  0
   -5.7471   -4.6552   -2.7507 H   0  0  0  0  0  0  0  0  0  0  0  0
   -5.9943   -3.6969   -1.1708 H   0  0  0  0  0  0  0  0  0  0  0  0
   -6.6756   -2.8013   -4.1014 H   0  0  0  0  0  0  0  0  0  0  0  0
   -7.2499   -1.5257   -2.4057 C   0  0  0  0  0  0  0  0  0  0  0  0
    7.0404    1.0644   -5.6186 O   0  0  0  0  0  0  0  0  0  0  0  0
    5.7510    2.1295   -4.0910 O   0  0  0  0  0  0  0  0  0  0  0  0
   -8.2423   -1.1179   -3.2256 O   0  0  0  0  0  0  0  0  0  0  0  0
   -7.0868   -1.0972   -1.2809 O   0  0  0  0  0  0  0  0  0  0  0  0
    8.2526    1.2956   -4.8418 C   0  0  0  0  0  0  0  0  0  0  0  0
   -9.1644   -0.1044   -2.7336 C   0  0  0  0  0  0  0  0  0  0  0  0
    9.1574    0.0828   -5.0660 C   0  0  0  0  0  0  0  0  0  0  0  0
    8.8790    2.6233   -5.2773 C   0  0  0  0  0  0  0  0  0  0  0  0
    7.9463    1.3633   -3.7803 H   0  0  0  0  0  0  0  0  0  0  0  0
   -8.5911    1.2901   -3.0165 C   0  0  0  0  0  0  0  0  0  0  0  0
  -10.5073   -0.3667   -3.4142 C   0  0  0  0  0  0  0  0  0  0  0  0
   -9.2454   -0.2469   -1.6406 H   0  0  0  0  0  0  0  0  0  0  0  0
    8.6460   -0.8377   -4.7553 H   0  0  0  0  0  0  0  0  0  0  0  0
    9.4319   -0.0079   -6.1279 H   0  0  0  0  0  0  0  0  0  0  0  0
   10.0841    0.1886   -4.4857 H   0  0  0  0  0  0  0  0  0  0  0  0
    8.1855    3.4538   -5.0931 H   0  0  0  0  0  0  0  0  0  0  0  0
    9.8025    2.8140   -4.7135 H   0  0  0  0  0  0  0  0  0  0  0  0
    9.1340    2.6005   -6.3480 H   0  0  0  0  0  0  0  0  0  0  0  0
   -7.6293    1.4217   -2.4947 H   0  0  0  0  0  0  0  0  0  0  0  0
   -8.4355    1.4311   -4.0950 H   0  0  0  0  0  0  0  0  0  0  0  0
   -9.2874    2.0637   -2.6638 H   0  0  0  0  0  0  0  0  0  0  0  0
  -10.8652   -1.3819   -3.1919 H   0  0  0  0  0  0  0  0  0  0  0  0
  -11.2631    0.3480   -3.0619 H   0  0  0  0  0  0  0  0  0  0  0  0
  -10.4215   -0.2641   -4.5039 H   0  0  0  0  0  0  0  0  0  0  0  0
    4.3136   -6.1335    2.4930 H   0  0  0  0  0  0  0  0  0  0  0  0
    0.4627   -7.9286    1.6290 H   0  0  0  0  0  0  0  0  0  0  0  0
    1.2245    7.1798   -2.1997 H   0  0  0  0  0  0  0  0  0  0  0  0
   -3.0717    7.2363   -1.6137 H   0  0  0  0  0  0  0  0  0  0  0  0
    3.5142   -3.6259    1.8308 O   0  0  0  0  0  0  0  0  0  0  0  0
   -0.6857   -5.5806    0.8916 O   0  0  0  0  0  0  0  0  0  0  0  0
    1.4813    4.5703   -1.4542 O   0  0  0  0  0  0  0  0  0  0  0  0
   -3.1952    4.6457   -0.8076 O   0  0  0  0  0  0  0  0  0  0  0  0
    4.8490   -3.6739    2.2323 C   0  0  0  0  0  0  0  0  0  0  0  0
    5.8528   -3.9576    1.2961 C   0  0  0  0  0  0  0  0  0  0  0  0
    5.1754   -3.3583    3.5577 C   0  0  0  0  0  0  0  0  0  0  0  0
    7.1943   -3.9312    1.6980 C   0  0  0  0  0  0  0  0  0  0  0  0
    5.5731   -4.1898    0.2637 H   0  0  0  0  0  0  0  0  0  0  0  0
    6.5209   -3.3336    3.9480 C   0  0  0  0  0  0  0  0  0  0  0  0
    4.3688   -3.1312    4.2626 H   0  0  0  0  0  0  0  0  0  0  0  0
    7.5320   -3.6217    3.0222 C   0  0  0  0  0  0  0  0  0  0  0  0
    7.9832   -4.1508    0.9698 H   0  0  0  0  0  0  0  0  0  0  0  0
    6.7822   -3.0870    4.9832 H   0  0  0  0  0  0  0  0  0  0  0  0
    8.5856   -3.6023    3.3319 H   0  0  0  0  0  0  0  0  0  0  0  0
   -1.6644   -6.5560    1.0532 C   0  0  0  0  0  0  0  0  0  0  0  0
   -2.0499   -7.0029    2.3253 C   0  0  0  0  0  0  0  0  0  0  0  0
   -2.3176   -7.0239   -0.0953 C   0  0  0  0  0  0  0  0  0  0  0  0
   -3.0827   -7.9415    2.4396 C   0  0  0  0  0  0  0  0  0  0  0  0
   -1.5420   -6.6095    3.2123 H   0  0  0  0  0  0  0  0  0  0  0  0
   -3.3548   -7.9560    0.0335 C   0  0  0  0  0  0  0  0  0  0  0  0
   -2.0055   -6.6411   -1.0723 H   0  0  0  0  0  0  0  0  0  0  0  0
   -3.7361   -8.4228    1.2978 C   0  0  0  0  0  0  0  0  0  0  0  0
   -3.3841   -8.2962    3.4314 H   0  0  0  0  0  0  0  0  0  0  0  0
   -3.8677   -8.3219   -0.8626 H   0  0  0  0  0  0  0  0  0  0  0  0
   -4.5442   -9.1598    1.3944 H   0  0  0  0  0  0  0  0  0  0  0  0
    2.7553    5.1083   -1.3423 C   0  0  0  0  0  0  0  0  0  0  0  0
    3.0700    6.1643   -0.4719 C   0  0  0  0  0  0  0  0  0  0  0  0
    3.7682    4.4736   -2.0792 C   0  0  0  0  0  0  0  0  0  0  0  0
    4.3992    6.5933   -0.3636 C   0  0  0  0  0  0  0  0  0  0  0  0
    2.2799    6.6417    0.1180 H   0  0  0  0  0  0  0  0  0  0  0  0
    5.0927    4.9041   -1.9540 C   0  0  0  0  0  0  0  0  0  0  0  0
    3.5100    3.6379   -2.7373 H   0  0  0  0  0  0  0  0  0  0  0  0
    5.4139    5.9703   -1.1022 C   0  0  0  0  0  0  0  0  0  0  0  0
    4.6441    7.4217    0.3132 H   0  0  0  0  0  0  0  0  0  0  0  0
    5.8672    4.3878   -2.5322 H   0  0  0  0  0  0  0  0  0  0  0  0
    6.4522    6.3144   -1.0082 H   0  0  0  0  0  0  0  0  0  0  0  0
   -4.4757    5.0538   -1.1628 C   0  0  0  0  0  0  0  0  0  0  0  0
   -4.8392    5.2714   -2.4997 C   0  0  0  0  0  0  0  0  0  0  0  0
   -5.4299    5.1563   -0.1403 C   0  0  0  0  0  0  0  0  0  0  0  0
   -6.1625    5.6125   -2.8051 C   0  0  0  0  0  0  0  0  0  0  0  0
   -4.0875    5.1657   -3.2891 H   0  0  0  0  0  0  0  0  0  0  0  0
   -6.7515    5.4907   -0.4605 C   0  0  0  0  0  0  0  0  0  0  0  0
   -5.1194    4.9630    0.8913 H   0  0  0  0  0  0  0  0  0  0  0  0
   -7.1215    5.7260   -1.7906 C   0  0  0  0  0  0  0  0  0  0  0  0
   -6.4495    5.7830   -3.8484 H   0  0  0  0  0  0  0  0  0  0  0  0
   -7.4984    5.5696    0.3368 H   0  0  0  0  0  0  0  0  0  0  0  0
   -8.1578    5.9924   -2.0376 H   0  0  0  0  0  0  0  0  0  0  0  0
    1.3645    0.4680    0.2456 N   0  0  0  0  0  0  0  0  0  0  0  0
    2.4121    1.2213    0.3512 C   0  0  0  0  0  0  0  0  0  0  0  0
    2.5267    2.1666    1.4112 C   0  0  0  0  0  0  0  0  0  0  0  0
    3.6448    2.9509    1.5337 C   0  0  0  0  0  0  0  0  0  0  0  0
    4.6902    2.8427    0.6237 C   0  0  0  0  0  0  0  0  0  0  0  0
    4.6012    1.9270   -0.4153 C   0  0  0  0  0  0  0  0  0  0  0  0
    3.5008    1.1146   -0.5701 C   0  0  0  0  0  0  0  0  0  0  0  0
    3.4534    0.0382   -1.6073 C   0  0  0  0  0  0  0  0  0  0  0  0
    3.8423   -1.3184   -0.9777 C   0  0  0  0  0  0  0  0  0  0  0  0
    5.1930   -1.2061   -0.3407 C   0  0  0  0  0  0  0  0  0  0  0  0
    5.3083   -0.7940    0.9824 C   0  0  0  0  0  0  0  0  0  0  0  0
    6.5477   -0.6142    1.5642 C   0  0  0  0  0  0  0  0  0  0  0  0
    7.6918   -0.8595    0.8183 C   0  0  0  0  0  0  0  0  0  0  0  0
    9.0474   -0.6689    1.4212 C   0  0  0  0  0  0  0  0  0  0  0  0
    9.0423   -0.6102    2.7626 F   0  0  0  0  0  0  0  0  0  0  0  0
    9.9073   -1.6579    1.0972 F   0  0  0  0  0  0  0  0  0  0  0  0
    9.6480    0.4722    1.0063 F   0  0  0  0  0  0  0  0  0  0  0  0
    7.5967   -1.2697   -0.5059 C   0  0  0  0  0  0  0  0  0  0  0  0
    6.3499   -1.4357   -1.0767 C   0  0  0  0  0  0  0  0  0  0  0  0
    1.6992    2.2456    2.0988 H   0  0  0  0  0  0  0  0  0  0  0  0
    3.7267    3.6497    2.3531 H   0  0  0  0  0  0  0  0  0  0  0  0
    5.5650    3.4623    0.7292 H   0  0  0  0  0  0  0  0  0  0  0  0
    5.4092    1.8462   -1.1272 H   0  0  0  0  0  0  0  0  0  0  0  0
    4.1564    0.2760   -2.4076 H   0  0  0  0  0  0  0  0  0  0  0  0
    2.4387   -0.0477   -2.0038 H   0  0  0  0  0  0  0  0  0  0  0  0
    3.8452   -2.0816   -1.7568 H   0  0  0  0  0  0  0  0  0  0  0  0
    3.0942   -1.5827   -0.2282 H   0  0  0  0  0  0  0  0  0  0  0  0
    4.4171   -0.6183    1.5634 H   0  0  0  0  0  0  0  0  0  0  0  0
    6.6327   -0.2956    2.5903 H   0  0  0  0  0  0  0  0  0  0  0  0
    8.4945   -1.4575   -1.0745 H   0  0  0  0  0  0  0  0  0  0  0  0
    6.2740   -1.7508   -2.1062 H   0  0  0  0  0  0  0  0  0  0  0  0
  1  4  4  0  0  0  0
  3  4  4  0  0  0  0
  4  5  1  0  0  0  0
  5  6  1  0  0  0  0
  5  7  2  0  0  0  0
  7  8  1  0  0  0  0
  1  9  4  0  0  0  0
  7  9  1  0  0  0  0
  9 10  4  0  0  0  0
  2 11  4  0  0  0  0
 10 11  4  0  0  0  0
 11 12  1  0  0  0  0
 12 13  1  0  0  0  0
 12 14  2  0  0  0  0
 14 15  1  0  0  0  0
  2 16  4  0  0  0  0
 14 16  1  0  0  0  0
 10 17  1  0  0  0  0
 17 18  4  0  0  0  0
 18 19  4  0  0  0  0
 19 20  4  0  0  0  0
 20 21  1  0  0  0  0
 20 22  4  0  0  0  0
 17 23  4  0  0  0  0
 22 23  4  0  0  0  0
 16 26  4  0  0  0  0
 24 27  4  0  0  0  0
 26 27  4  0  0  0  0
 27 28  1  0  0  0  0
 28 29  1  0  0  0  0
 28 30  2  0  0  0  0
 30 31  1  0  0  0  0
 24 32  4  0  0  0  0
 30 32  1  0  0  0  0
 32 33  4  0  0  0  0
 25 34  4  0  0  0  0
 33 34  4  0  0  0  0
 34 35  1  0  0  0  0
 35 36  1  0  0  0  0
 35 37  2  0  0  0  0
 37 38  1  0  0  0  0
  3 39  4  0  0  0  0
 25 39  4  0  0  0  0
 37 39  1  0  0  0  0
 33 40  1  0  0  0  0
 40 41  4  0  0  0  0
 41 42  4  0  0  0  0
 42 43  4  0  0  0  0
 43 44  1  0  0  0  0
 43 45  4  0  0  0  0
 40 46  4  0  0  0  0
 45 46  4  0  0  0  0
  1 47  1  0  0  0  0
  2 47  1  0  0  0  0
 24 47  1  0  0  0  0
 25 47  1  0  0  0  0
 47 48  1  0  0  0  0
 26 49  1  0  0  0  0
 49 50  4  0  0  0  0
 49 51  4  0  0  0  0
 50 52  4  0  0  0  0
 50 53  1  0  0  0  0
 51 54  4  0  0  0  0
 51 55  1  0  0  0  0
 52 56  1  0  0  0  0
 52 57  4  0  0  0  0
 54 57  4  0  0  0  0
 53 58  4  0  0  0  0
 53 59  1  0  0  0  0
 54 60  1  0  0  0  0
 55 61  4  0  0  0  0
 55 62  1  0  0  0  0
 57 63  1  0  0  0  0
 58 64  2  0  0  0  0
 58 65  1  0  0  0  0
 61 66  2  0  0  0  0
 61 67  1  0  0  0  0
 65 68  1  0  0  0  0
 65 69  1  0  0  0  0
 65 70  1  0  0  0  0
 68 70  1  0  0  0  0
 67 71  1  0  0  0  0
 67 72  1  0  0  0  0
 67 73  1  0  0  0  0
 71 73  1  0  0  0  0
 68 74  1  0  0  0  0
 68 75  1  0  0  0  0
 70 76  1  0  0  0  0
 70 77  1  0  0  0  0
 71 78  1  0  0  0  0
 71 79  1  0  0  0  0
 73 80  1  0  0  0  0
 73 81  1  0  0  0  0
 77 82  1  0  0  0  0
 77 83  2  0  0  0  0
 81 84  1  0  0  0  0
 81 85  2  0  0  0  0
 82 86  1  0  0  0  0
 84 87  1  0  0  0  0
 86 88  1  0  0  0  0
 86 89  1  0  0  0  0
 86 90  1  0  0  0  0
 87 91  1  0  0  0  0
 87 92  1  0  0  0  0
 87 93  1  0  0  0  0
 88 94  1  0  0  0  0
 88 95  1  0  0  0  0
 88 96  1  0  0  0  0
 89 97  1  0  0  0  0
 89 98  1  0  0  0  0
 89 99  1  0  0  0  0
 91100  1  0  0  0  0
 91101  1  0  0  0  0
 91102  1  0  0  0  0
 92103  1  0  0  0  0
 92104  1  0  0  0  0
 92105  1  0  0  0  0
  3106  1  0  0  0  0
106107  4  0  0  0  0
106108  4  0  0  0  0
107109  4  0  0  0  0
107110  1  0  0  0  0
108111  4  0  0  0  0
108112  1  0  0  0  0
109113  1  0  0  0  0
109114  4  0  0  0  0
111114  4  0  0  0  0
110115  4  0  0  0  0
110116  1  0  0  0  0
111117  1  0  0  0  0
112118  4  0  0  0  0
112119  1  0  0  0  0
114120  1  0  0  0  0
115121  2  0  0  0  0
115122  1  0  0  0  0
118123  2  0  0  0  0
118124  1  0  0  0  0
122125  1  0  0  0  0
122126  1  0  0  0  0
122127  1  0  0  0  0
125127  1  0  0  0  0
124128  1  0  0  0  0
124129  1  0  0  0  0
124130  1  0  0  0  0
128130  1  0  0  0  0
125131  1  0  0  0  0
125132  1  0  0  0  0
127133  1  0  0  0  0
127134  1  0  0  0  0
128135  1  0  0  0  0
128136  1  0  0  0  0
130137  1  0  0  0  0
130138  1  0  0  0  0
134139  1  0  0  0  0
134140  2  0  0  0  0
138141  1  0  0  0  0
138142  2  0  0  0  0
139143  1  0  0  0  0
141144  1  0  0  0  0
143145  1  0  0  0  0
143146  1  0  0  0  0
143147  1  0  0  0  0
144148  1  0  0  0  0
144149  1  0  0  0  0
144150  1  0  0  0  0
145151  1  0  0  0  0
145152  1  0  0  0  0
145153  1  0  0  0  0
146154  1  0  0  0  0
146155  1  0  0  0  0
146156  1  0  0  0  0
148157  1  0  0  0  0
148158  1  0  0  0  0
148159  1  0  0  0  0
149160  1  0  0  0  0
149161  1  0  0  0  0
149162  1  0  0  0  0
 19163  1  0  0  0  0
 22164  1  0  0  0  0
 42165  1  0  0  0  0
 45166  1  0  0  0  0
 18167  1  0  0  0  0
 23168  1  0  0  0  0
 41169  1  0  0  0  0
 46170  1  0  0  0  0
167171  1  0  0  0  0
171172  4  0  0  0  0
171173  4  0  0  0  0
172174  4  0  0  0  0
172175  1  0  0  0  0
173176  4  0  0  0  0
173177  1  0  0  0  0
174178  4  0  0  0  0
176178  4  0  0  0  0
174179  1  0  0  0  0
176180  1  0  0  0  0
178181  1  0  0  0  0
168182  1  0  0  0  0
182183  4  0  0  0  0
182184  4  0  0  0  0
183185  4  0  0  0  0
183186  1  0  0  0  0
184187  4  0  0  0  0
184188  1  0  0  0  0
185189  4  0  0  0  0
187189  4  0  0  0  0
185190  1  0  0  0  0
187191  1  0  0  0  0
189192  1  0  0  0  0
169193  1  0  0  0  0
193194  4  0  0  0  0
193195  4  0  0  0  0
194196  4  0  0  0  0
194197  1  0  0  0  0
195198  4  0  0  0  0
195199  1  0  0  0  0
196200  4  0  0  0  0
198200  4  0  0  0  0
196201  1  0  0  0  0
198202  1  0  0  0  0
200203  1  0  0  0  0
170204  1  0  0  0  0
204205  4  0  0  0  0
204206  4  0  0  0  0
205207  4  0  0  0  0
205208  1  0  0  0  0
206209  4  0  0  0  0
206210  1  0  0  0  0
207211  4  0  0  0  0
209211  4  0  0  0  0
207212  1  0  0  0  0
209213  1  0  0  0  0
211214  1  0  0  0  0
 47215  2  0  0  0  0
215216  4  0  0  0  0
216217  1  0  0  0  0
217218  2  0  0  0  0
218219  4  0  0  0  0
219220  4  0  0  0  0
216221  1  0  0  0  0
220221  4  0  0  0  0
221222  1  0  0  0  0
222223  1  0  0  0  0
223224  1  0  0  0  0
224225  4  0  0  0  0
225226  4  0  0  0  0
226227  4  0  0  0  0
227228  1  0  0  0  0
228229  1  0  0  0  0
228230  1  0  0  0  0
228231  1  0  0  0  0
227232  4  0  0  0  0
224233  4  0  0  0  0
232233  4  0  0  0  0
217234  1  0  0  0  0
218235  1  0  0  0  0
219236  1  0  0  0  0
220237  1  0  0  0  0
222238  1  0  0  0  0
222239  1  0  0  0  0
223240  1  0  0  0  0
223241  1  0  0  0  0
225242  1  0  0  0  0
226243  1  0  0  0  0
232244  1  0  0  0  0
233245  1  0  0  0  0
M  END
