
     RDKit          3D

 31 32  0  0  0  0  0  0  0  0999 V2000
    4.6179    1.1059    0.4842 C   0  0  0  0  0  0  0  0  0  0  0  0
    3.5800    0.0702    0.1679 C   0  0  0  0  0  0  0  0  0  0  0  0
    3.9508   -1.2720   -0.0053 C   0  0  0  0  0  0  0  0  0  0  0  0
    2.9878   -2.2318   -0.3273 C   0  0  0  0  0  0  0  0  0  0  0  0
    1.6524   -1.8575   -0.4959 C   0  0  0  0  0  0  0  0  0  0  0  0
    1.2723   -0.5132   -0.3582 C   0  0  0  0  0  0  0  0  0  0  0  0
   -0.1703   -0.1135   -0.5146 C   0  0  0  0  0  0  0  0  0  0  0  0
   -0.9007   -0.1976    0.8291 C   0  0  0  0  0  0  0  0  0  0  0  0
   -2.3478    0.2005    0.6733 C   0  0  0  0  0  0  0  0  0  0  0  0
   -2.7204    1.5428    0.8626 C   0  0  0  0  0  0  0  0  0  0  0  0
   -4.0499    1.9389    0.6939 C   0  0  0  0  0  0  0  0  0  0  0  0
   -5.0180    1.0028    0.3249 C   0  0  0  0  0  0  0  0  0  0  0  0
   -4.6583   -0.3311    0.1190 C   0  0  0  0  0  0  0  0  0  0  0  0
   -3.3287   -0.7375    0.2854 C   0  0  0  0  0  0  0  0  0  0  0  0
   -2.9846   -2.1019    0.0537 N   0  0  0  0  0  1  0  0  0  0  0  0
    2.2406    0.4467   -0.0203 C   0  0  0  0  0  0  0  0  0  0  0  0
    5.0225    1.5236   -0.4612 H   0  0  0  0  0  0  0  0  0  0  0  0
    4.1780    1.9297    1.0857 H   0  0  0  0  0  0  0  0  0  0  0  0
    5.4508    0.6611    1.0696 H   0  0  0  0  0  0  0  0  0  0  0  0
    4.9834   -1.5759    0.1142 H   0  0  0  0  0  0  0  0  0  0  0  0
    3.2772   -3.2679   -0.4467 H   0  0  0  0  0  0  0  0  0  0  0  0
    0.9155   -2.6136   -0.7369 H   0  0  0  0  0  0  0  0  0  0  0  0
   -0.6664   -0.7788   -1.2553 H   0  0  0  0  0  0  0  0  0  0  0  0
   -0.2327    0.9245   -0.9102 H   0  0  0  0  0  0  0  0  0  0  0  0
   -0.4023    0.4717    1.5651 H   0  0  0  0  0  0  0  0  0  0  0  0
   -0.8300   -1.2305    1.2347 H   0  0  0  0  0  0  0  0  0  0  0  0
   -1.9802    2.2834    1.1398 H   0  0  0  0  0  0  0  0  0  0  0  0
   -4.3292    2.9735    0.8460 H   0  0  0  0  0  0  0  0  0  0  0  0
   -6.0468    1.3121    0.1935 H   0  0  0  0  0  0  0  0  0  0  0  0
   -5.4138   -1.0493   -0.1745 H   0  0  0  0  0  0  0  0  0  0  0  0
    1.9510    1.4843    0.0984 H   0  0  0  0  0  0  0  0  0  0  0  0
  1  2  1  0
  2  3  1  0
  3  4  2  0
  4  5  1  0
  5  6  2  0
  6  7  1  0
  7  8  1  0
  8  9  1  0
  9 10  2  0
 10 11  1  0
 11 12  2  0
 12 13  1  0
 13 14  2  0
 14 15  1  0
  6 16  1  0
 14  9  1  0
 16  2  2  0
  1 17  1  0
  1 18  1  0
  1 19  1  0
  3 20  1  0
  4 21  1  0
  5 22  1  0
  7 23  1  0
  7 24  1  0
  8 25  1  0
  8 26  1  0
 10 27  1  0
 11 28  1  0
 12 29  1  0
 13 30  1  0
 16 31  1  0
M  RAD  1  15   3
M  END
$$$$
