
     RDKit          3D

 31 32  0  0  0  0  0  0  0  0999 V2000
    4.5042    0.6589    1.3813 C   0  0  0  0  0  0  0  0  0  0  0  0
    3.5479   -0.0642    0.4798 C   0  0  0  0  0  0  0  0  0  0  0  0
    3.9762   -1.1801   -0.2552 C   0  0  0  0  0  0  0  0  0  0  0  0
    3.0928   -1.8365   -1.1160 C   0  0  0  0  0  0  0  0  0  0  0  0
    1.7824   -1.3750   -1.2628 C   0  0  0  0  0  0  0  0  0  0  0  0
    1.3496   -0.2402   -0.5588 C   0  0  0  0  0  0  0  0  0  0  0  0
   -0.0694    0.2422   -0.6971 C   0  0  0  0  0  0  0  0  0  0  0  0
   -0.9717   -0.4361    0.3381 C   0  0  0  0  0  0  0  0  0  0  0  0
   -2.3952    0.0448    0.1989 C   0  0  0  0  0  0  0  0  0  0  0  0
   -2.8274    1.1532    0.9480 C   0  0  0  0  0  0  0  0  0  0  0  0
   -4.1326    1.6338    0.8121 C   0  0  0  0  0  0  0  0  0  0  0  0
   -5.0154    1.0205   -0.0790 C   0  0  0  0  0  0  0  0  0  0  0  0
   -4.5939   -0.0722   -0.8404 C   0  0  0  0  0  0  0  0  0  0  0  0
   -3.2881   -0.5608   -0.7113 C   0  0  0  0  0  0  0  0  0  0  0  0
   -2.8777   -1.6675   -1.5116 N   0  0  0  0  0  1  0  0  0  0  0  0
    2.2362    0.4086    0.3165 C   0  0  0  0  0  0  0  0  0  0  0  0
    5.0207    1.4564    0.8076 H   0  0  0  0  0  0  0  0  0  0  0  0
    3.9643    1.1189    2.2363 H   0  0  0  0  0  0  0  0  0  0  0  0
    5.2627   -0.0414    1.7918 H   0  0  0  0  0  0  0  0  0  0  0  0
    4.9914   -1.5446   -0.1581 H   0  0  0  0  0  0  0  0  0  0  0  0
    3.4246   -2.7048   -1.6706 H   0  0  0  0  0  0  0  0  0  0  0  0
    1.1062   -1.8990   -1.9270 H   0  0  0  0  0  0  0  0  0  0  0  0
   -0.1070    1.3457   -0.5606 H   0  0  0  0  0  0  0  0  0  0  0  0
   -0.4422    0.0241   -1.7223 H   0  0  0  0  0  0  0  0  0  0  0  0
   -0.9274   -1.5402    0.2138 H   0  0  0  0  0  0  0  0  0  0  0  0
   -0.5961   -0.2124    1.3613 H   0  0  0  0  0  0  0  0  0  0  0  0
   -2.1525    1.6463    1.6367 H   0  0  0  0  0  0  0  0  0  0  0  0
   -4.4587    2.4849    1.3959 H   0  0  0  0  0  0  0  0  0  0  0  0
   -6.0254    1.3953   -0.1836 H   0  0  0  0  0  0  0  0  0  0  0  0
   -5.2825   -0.5372   -1.5348 H   0  0  0  0  0  0  0  0  0  0  0  0
    1.9041    1.2785    0.8712 H   0  0  0  0  0  0  0  0  0  0  0  0
  1  2  1  0
  2  3  1  0
  3  4  2  0
  4  5  1  0
  5  6  2  0
  6  7  1  0
  7  8  1  0
  8  9  1  0
  9 10  2  0
 10 11  1  0
 11 12  2  0
 12 13  1  0
 13 14  2  0
 14 15  1  0
  6 16  1  0
 14  9  1  0
 16  2  2  0
  1 17  1  0
  1 18  1  0
  1 19  1  0
  3 20  1  0
  4 21  1  0
  5 22  1  0
  7 23  1  0
  7 24  1  0
  8 25  1  0
  8 26  1  0
 10 27  1  0
 11 28  1  0
 12 29  1  0
 13 30  1  0
 16 31  1  0
M  RAD  1  15   3
M  END
$$$$
