
     RDKit          3D

 31 32  0  0  0  0  0  0  0  0999 V2000
    4.5018    0.6508    1.4800 C   0  0  0  0  0  0  0  0  0  0  0  0
    3.5607    0.2229    0.3930 C   0  0  0  0  0  0  0  0  0  0  0  0
    4.0478   -0.4438   -0.7414 C   0  0  0  0  0  0  0  0  0  0  0  0
    3.1750   -0.8175   -1.7665 C   0  0  0  0  0  0  0  0  0  0  0  0
    1.8144   -0.5139   -1.6756 C   0  0  0  0  0  0  0  0  0  0  0  0
    1.3182    0.1817   -0.5619 C   0  0  0  0  0  0  0  0  0  0  0  0
   -0.1517    0.4865   -0.4515 C   0  0  0  0  0  0  0  0  0  0  0  0
   -0.8875   -0.6590    0.2499 C   0  0  0  0  0  0  0  0  0  0  0  0
   -2.3617   -0.3559    0.3590 C   0  0  0  0  0  0  0  0  0  0  0  0
   -2.8508    0.2980    1.5035 C   0  0  0  0  0  0  0  0  0  0  0  0
   -4.2075    0.6153    1.6119 C   0  0  0  0  0  0  0  0  0  0  0  0
   -5.0869    0.2930    0.5765 C   0  0  0  0  0  0  0  0  0  0  0  0
   -4.6112   -0.3432   -0.5726 C   0  0  0  0  0  0  0  0  0  0  0  0
   -3.2536   -0.6650   -0.6905 C   0  0  0  0  0  0  0  0  0  0  0  0
   -2.7905   -1.3001   -1.8804 N   0  0  0  0  0  1  0  0  0  0  0  0
    2.1962    0.5432    0.4734 C   0  0  0  0  0  0  0  0  0  0  0  0
    3.9855    0.6593    2.4636 H   0  0  0  0  0  0  0  0  0  0  0  0
    5.3630   -0.0473    1.5510 H   0  0  0  0  0  0  0  0  0  0  0  0
    4.8797    1.6710    1.2604 H   0  0  0  0  0  0  0  0  0  0  0  0
    5.1014   -0.6789   -0.8298 H   0  0  0  0  0  0  0  0  0  0  0  0
    3.5540   -1.3434   -2.6333 H   0  0  0  0  0  0  0  0  0  0  0  0
    1.1482   -0.8174   -2.4738 H   0  0  0  0  0  0  0  0  0  0  0  0
   -0.5799    0.6441   -1.4660 H   0  0  0  0  0  0  0  0  0  0  0  0
   -0.2987    1.4306    0.1185 H   0  0  0  0  0  0  0  0  0  0  0  0
   -0.4573   -0.8103    1.2649 H   0  0  0  0  0  0  0  0  0  0  0  0
   -0.7328   -1.6075   -0.3094 H   0  0  0  0  0  0  0  0  0  0  0  0
   -2.1805    0.5636    2.3117 H   0  0  0  0  0  0  0  0  0  0  0  0
   -4.5766    1.1148    2.4984 H   0  0  0  0  0  0  0  0  0  0  0  0
   -6.1370    0.5409    0.6620 H   0  0  0  0  0  0  0  0  0  0  0  0
   -5.2985   -0.5828   -1.3743 H   0  0  0  0  0  0  0  0  0  0  0  0
    1.8168    1.0705    1.3409 H   0  0  0  0  0  0  0  0  0  0  0  0
  1  2  1  0
  2  3  1  0
  3  4  2  0
  4  5  1  0
  5  6  2  0
  6  7  1  0
  7  8  1  0
  8  9  1  0
  9 10  2  0
 10 11  1  0
 11 12  2  0
 12 13  1  0
 13 14  2  0
 14 15  1  0
  6 16  1  0
 14  9  1  0
 16  2  2  0
  1 17  1  0
  1 18  1  0
  1 19  1  0
  3 20  1  0
  4 21  1  0
  5 22  1  0
  7 23  1  0
  7 24  1  0
  8 25  1  0
  8 26  1  0
 10 27  1  0
 11 28  1  0
 12 29  1  0
 13 30  1  0
 16 31  1  0
M  RAD  1  15   3
M  END
$$$$
