
     RDKit          3D

 31 32  0  0  0  0  0  0  0  0999 V2000
    2.1995    2.3704    0.9503 C   0  0  0  0  0  0  0  0  0  0  0  0
    2.1730    0.9506    0.4679 C   0  0  0  0  0  0  0  0  0  0  0  0
    3.1320    0.4969   -0.4503 C   0  0  0  0  0  0  0  0  0  0  0  0
    3.0741   -0.8105   -0.9397 C   0  0  0  0  0  0  0  0  0  0  0  0
    2.0527   -1.6699   -0.5276 C   0  0  0  0  0  0  0  0  0  0  0  0
    1.0815   -1.2275    0.3839 C   0  0  0  0  0  0  0  0  0  0  0  0
   -0.0592   -2.1319    0.7751 C   0  0  0  0  0  0  0  0  0  0  0  0
   -1.1950   -2.0965   -0.2576 C   0  0  0  0  0  0  0  0  0  0  0  0
   -1.8423   -0.7318   -0.3354 C   0  0  0  0  0  0  0  0  0  0  0  0
   -2.7755   -0.3583    0.6474 C   0  0  0  0  0  0  0  0  0  0  0  0
   -3.3530    0.9139    0.6293 C   0  0  0  0  0  0  0  0  0  0  0  0
   -3.0011    1.8283   -0.3650 C   0  0  0  0  0  0  0  0  0  0  0  0
   -2.0703    1.4733   -1.3438 C   0  0  0  0  0  0  0  0  0  0  0  0
   -1.4871    0.2006   -1.3355 C   0  0  0  0  0  0  0  0  0  0  0  0
   -0.5294   -0.1286   -2.3393 N   0  0  0  0  0  1  0  0  0  0  0  0
    1.1415    0.0889    0.8712 C   0  0  0  0  0  0  0  0  0  0  0  0
    3.2377    2.7655    0.9546 H   0  0  0  0  0  0  0  0  0  0  0  0
    1.8020    2.4382    1.9854 H   0  0  0  0  0  0  0  0  0  0  0  0
    1.5753    2.9985    0.2809 H   0  0  0  0  0  0  0  0  0  0  0  0
    3.9210    1.1561   -0.7907 H   0  0  0  0  0  0  0  0  0  0  0  0
    3.8163   -1.1551   -1.6482 H   0  0  0  0  0  0  0  0  0  0  0  0
    2.0105   -2.6753   -0.9279 H   0  0  0  0  0  0  0  0  0  0  0  0
   -0.4517   -1.8489    1.7767 H   0  0  0  0  0  0  0  0  0  0  0  0
    0.3127   -3.1759    0.8629 H   0  0  0  0  0  0  0  0  0  0  0  0
   -1.9629   -2.8455    0.0350 H   0  0  0  0  0  0  0  0  0  0  0  0
   -0.8121   -2.4178   -1.2501 H   0  0  0  0  0  0  0  0  0  0  0  0
   -3.0504   -1.0520    1.4325 H   0  0  0  0  0  0  0  0  0  0  0  0
   -4.0708    1.1925    1.3900 H   0  0  0  0  0  0  0  0  0  0  0  0
   -3.4476    2.8142   -0.3754 H   0  0  0  0  0  0  0  0  0  0  0  0
   -1.7989    2.1906   -2.1082 H   0  0  0  0  0  0  0  0  0  0  0  0
    0.3774    0.4465    1.5517 H   0  0  0  0  0  0  0  0  0  0  0  0
  1  2  1  0
  2  3  1  0
  3  4  2  0
  4  5  1  0
  5  6  2  0
  6  7  1  0
  7  8  1  0
  8  9  1  0
  9 10  2  0
 10 11  1  0
 11 12  2  0
 12 13  1  0
 13 14  2  0
 14 15  1  0
  6 16  1  0
 14  9  1  0
 16  2  2  0
  1 17  1  0
  1 18  1  0
  1 19  1  0
  3 20  1  0
  4 21  1  0
  5 22  1  0
  7 23  1  0
  7 24  1  0
  8 25  1  0
  8 26  1  0
 10 27  1  0
 11 28  1  0
 12 29  1  0
 13 30  1  0
 16 31  1  0
M  RAD  1  15   3
M  END
$$$$
