
     RDKit          3D

 31 32  0  0  0  0  0  0  0  0999 V2000
    2.7275    1.5768    1.3791 C   0  0  0  0  0  0  0  0  0  0  0  0
    2.3261    0.6324    0.2853 C   0  0  0  0  0  0  0  0  0  0  0  0
    2.8536    0.7802   -1.0064 C   0  0  0  0  0  0  0  0  0  0  0  0
    2.4379   -0.0667   -2.0371 C   0  0  0  0  0  0  0  0  0  0  0  0
    1.4845   -1.0575   -1.7903 C   0  0  0  0  0  0  0  0  0  0  0  0
    0.9423   -1.2123   -0.5052 C   0  0  0  0  0  0  0  0  0  0  0  0
   -0.1369   -2.2351   -0.2553 C   0  0  0  0  0  0  0  0  0  0  0  0
   -1.5214   -1.7130   -0.6659 C   0  0  0  0  0  0  0  0  0  0  0  0
   -1.9419   -0.5200    0.1621 C   0  0  0  0  0  0  0  0  0  0  0  0
   -1.7354    0.7782   -0.3381 C   0  0  0  0  0  0  0  0  0  0  0  0
   -2.0680    1.8951    0.4326 C   0  0  0  0  0  0  0  0  0  0  0  0
   -2.6073    1.7289    1.7095 C   0  0  0  0  0  0  0  0  0  0  0  0
   -2.8130    0.4452    2.2203 C   0  0  0  0  0  0  0  0  0  0  0  0
   -2.4803   -0.6801    1.4567 C   0  0  0  0  0  0  0  0  0  0  0  0
   -2.6875   -1.9795    2.0063 N   0  0  0  0  0  1  0  0  0  0  0  0
    1.3600   -0.3561    0.5276 C   0  0  0  0  0  0  0  0  0  0  0  0
    3.7593    1.9539    1.2148 H   0  0  0  0  0  0  0  0  0  0  0  0
    2.7017    1.0654    2.3649 H   0  0  0  0  0  0  0  0  0  0  0  0
    2.0260    2.4369    1.3989 H   0  0  0  0  0  0  0  0  0  0  0  0
    3.5822    1.5534   -1.2166 H   0  0  0  0  0  0  0  0  0  0  0  0
    2.8478    0.0521   -3.0318 H   0  0  0  0  0  0  0  0  0  0  0  0
    1.1596   -1.6963   -2.6023 H   0  0  0  0  0  0  0  0  0  0  0  0
    0.0866   -3.1547   -0.8388 H   0  0  0  0  0  0  0  0  0  0  0  0
   -0.1477   -2.5330    0.8160 H   0  0  0  0  0  0  0  0  0  0  0  0
   -2.2657   -2.5297   -0.5478 H   0  0  0  0  0  0  0  0  0  0  0  0
   -1.5143   -1.4518   -1.7473 H   0  0  0  0  0  0  0  0  0  0  0  0
   -1.3044    0.9254   -1.3208 H   0  0  0  0  0  0  0  0  0  0  0  0
   -1.9029    2.8905    0.0410 H   0  0  0  0  0  0  0  0  0  0  0  0
   -2.8631    2.5956    2.3053 H   0  0  0  0  0  0  0  0  0  0  0  0
   -3.2275    0.3253    3.2135 H   0  0  0  0  0  0  0  0  0  0  0  0
    0.9222   -0.4495    1.5147 H   0  0  0  0  0  0  0  0  0  0  0  0
  1  2  1  0
  2  3  1  0
  3  4  2  0
  4  5  1  0
  5  6  2  0
  6  7  1  0
  7  8  1  0
  8  9  1  0
  9 10  2  0
 10 11  1  0
 11 12  2  0
 12 13  1  0
 13 14  2  0
 14 15  1  0
  6 16  1  0
 14  9  1  0
 16  2  2  0
  1 17  1  0
  1 18  1  0
  1 19  1  0
  3 20  1  0
  4 21  1  0
  5 22  1  0
  7 23  1  0
  7 24  1  0
  8 25  1  0
  8 26  1  0
 10 27  1  0
 11 28  1  0
 12 29  1  0
 13 30  1  0
 16 31  1  0
M  RAD  1  15   3
M  END
$$$$
