
     RDKit          3D

 31 32  0  0  0  0  0  0  0  0999 V2000
    4.5784    1.2916    0.0314 C   0  0  0  0  0  0  0  0  0  0  0  0
    3.5730    0.1844    0.1475 C   0  0  0  0  0  0  0  0  0  0  0  0
    3.9659   -1.0814    0.6083 C   0  0  0  0  0  0  0  0  0  0  0  0
    3.0352   -2.1202    0.6900 C   0  0  0  0  0  0  0  0  0  0  0  0
    1.7113   -1.9093    0.2968 C   0  0  0  0  0  0  0  0  0  0  0  0
    1.3114   -0.6577   -0.1972 C   0  0  0  0  0  0  0  0  0  0  0  0
   -0.1205   -0.4226   -0.5970 C   0  0  0  0  0  0  0  0  0  0  0  0
   -0.9399    0.0676    0.6006 C   0  0  0  0  0  0  0  0  0  0  0  0
   -2.3763    0.3012    0.2018 C   0  0  0  0  0  0  0  0  0  0  0  0
   -2.7722    1.5742   -0.2447 C   0  0  0  0  0  0  0  0  0  0  0  0
   -4.0904    1.8048   -0.6475 C   0  0  0  0  0  0  0  0  0  0  0  0
   -5.0232    0.7663   -0.6185 C   0  0  0  0  0  0  0  0  0  0  0  0
   -4.6391   -0.5070   -0.1913 C   0  0  0  0  0  0  0  0  0  0  0  0
   -3.3207   -0.7478    0.2139 C   0  0  0  0  0  0  0  0  0  0  0  0
   -2.9502   -2.0603    0.6306 N   0  0  0  0  0  1  0  0  0  0  0  0
    2.2465    0.3885   -0.2645 C   0  0  0  0  0  0  0  0  0  0  0  0
    5.3728    1.1828    0.8003 H   0  0  0  0  0  0  0  0  0  0  0  0
    4.0916    2.2792    0.1789 H   0  0  0  0  0  0  0  0  0  0  0  0
    5.0433    1.2636   -0.9761 H   0  0  0  0  0  0  0  0  0  0  0  0
    4.9905   -1.2623    0.9091 H   0  0  0  0  0  0  0  0  0  0  0  0
    3.3406   -3.0910    1.0587 H   0  0  0  0  0  0  0  0  0  0  0  0
    0.9988   -2.7214    0.3737 H   0  0  0  0  0  0  0  0  0  0  0  0
   -0.1644    0.3310   -1.4143 H   0  0  0  0  0  0  0  0  0  0  0  0
   -0.5594   -1.3647   -0.9935 H   0  0  0  0  0  0  0  0  0  0  0  0
   -0.4984    1.0113    0.9912 H   0  0  0  0  0  0  0  0  0  0  0  0
   -0.8884   -0.6767    1.4250 H   0  0  0  0  0  0  0  0  0  0  0  0
   -2.0588    2.3884   -0.2823 H   0  0  0  0  0  0  0  0  0  0  0  0
   -4.3879    2.7890   -0.9856 H   0  0  0  0  0  0  0  0  0  0  0  0
   -6.0432    0.9468   -0.9321 H   0  0  0  0  0  0  0  0  0  0  0  0
   -5.3669   -1.3088   -0.1791 H   0  0  0  0  0  0  0  0  0  0  0  0
    1.9408    1.3602   -0.6344 H   0  0  0  0  0  0  0  0  0  0  0  0
  1  2  1  0
  2  3  1  0
  3  4  2  0
  4  5  1  0
  5  6  2  0
  6  7  1  0
  7  8  1  0
  8  9  1  0
  9 10  2  0
 10 11  1  0
 11 12  2  0
 12 13  1  0
 13 14  2  0
 14 15  1  0
  6 16  1  0
 14  9  1  0
 16  2  2  0
  1 17  1  0
  1 18  1  0
  1 19  1  0
  3 20  1  0
  4 21  1  0
  5 22  1  0
  7 23  1  0
  7 24  1  0
  8 25  1  0
  8 26  1  0
 10 27  1  0
 11 28  1  0
 12 29  1  0
 13 30  1  0
 16 31  1  0
M  RAD  1  15   3
M  END
$$$$
