
     RDKit          3D

 31 32  0  0  0  0  0  0  0  0999 V2000
    2.5218    1.7640    1.3877 C   0  0  0  0  0  0  0  0  0  0  0  0
    2.2164    0.3890    0.8725 C   0  0  0  0  0  0  0  0  0  0  0  0
    2.6681   -0.7435    1.5667 C   0  0  0  0  0  0  0  0  0  0  0  0
    2.3371   -2.0237    1.1152 C   0  0  0  0  0  0  0  0  0  0  0  0
    1.5432   -2.1834   -0.0231 C   0  0  0  0  0  0  0  0  0  0  0  0
    1.0776   -1.0598   -0.7235 C   0  0  0  0  0  0  0  0  0  0  0  0
    0.1640   -1.2308   -1.9105 C   0  0  0  0  0  0  0  0  0  0  0  0
   -1.2950   -1.4402   -1.4798 C   0  0  0  0  0  0  0  0  0  0  0  0
   -1.8478   -0.2330   -0.7568 C   0  0  0  0  0  0  0  0  0  0  0  0
   -1.8459   -0.2063    0.6493 C   0  0  0  0  0  0  0  0  0  0  0  0
   -2.3031    0.9208    1.3367 C   0  0  0  0  0  0  0  0  0  0  0  0
   -2.7645    2.0325    0.6295 C   0  0  0  0  0  0  0  0  0  0  0  0
   -2.7673    2.0212   -0.7673 C   0  0  0  0  0  0  0  0  0  0  0  0
   -2.3084    0.8974   -1.4650 C   0  0  0  0  0  0  0  0  0  0  0  0
   -2.3090    0.9161   -2.8908 N   0  0  0  0  0  1  0  0  0  0  0  0
    1.4094    0.2259   -0.2639 C   0  0  0  0  0  0  0  0  0  0  0  0
    3.4832    1.7714    1.9443 H   0  0  0  0  0  0  0  0  0  0  0  0
    1.7073    2.0923    2.0666 H   0  0  0  0  0  0  0  0  0  0  0  0
    2.6061    2.4856    0.5473 H   0  0  0  0  0  0  0  0  0  0  0  0
    3.2717   -0.6356    2.4594 H   0  0  0  0  0  0  0  0  0  0  0  0
    2.6879   -2.8939    1.6549 H   0  0  0  0  0  0  0  0  0  0  0  0
    1.2810   -3.1812   -0.3524 H   0  0  0  0  0  0  0  0  0  0  0  0
    0.2363   -0.3497   -2.5850 H   0  0  0  0  0  0  0  0  0  0  0  0
    0.4926   -2.1124   -2.5028 H   0  0  0  0  0  0  0  0  0  0  0  0
   -1.9115   -1.6501   -2.3802 H   0  0  0  0  0  0  0  0  0  0  0  0
   -1.3660   -2.3445   -0.8358 H   0  0  0  0  0  0  0  0  0  0  0  0
   -1.4777   -1.0543    1.2136 H   0  0  0  0  0  0  0  0  0  0  0  0
   -2.2952    0.9339    2.4189 H   0  0  0  0  0  0  0  0  0  0  0  0
   -3.1171    2.9051    1.1640 H   0  0  0  0  0  0  0  0  0  0  0  0
   -3.1225    2.8894   -1.3082 H   0  0  0  0  0  0  0  0  0  0  0  0
    1.0272    1.0980   -0.7815 H   0  0  0  0  0  0  0  0  0  0  0  0
  1  2  1  0
  2  3  1  0
  3  4  2  0
  4  5  1  0
  5  6  2  0
  6  7  1  0
  7  8  1  0
  8  9  1  0
  9 10  2  0
 10 11  1  0
 11 12  2  0
 12 13  1  0
 13 14  2  0
 14 15  1  0
  6 16  1  0
 14  9  1  0
 16  2  2  0
  1 17  1  0
  1 18  1  0
  1 19  1  0
  3 20  1  0
  4 21  1  0
  5 22  1  0
  7 23  1  0
  7 24  1  0
  8 25  1  0
  8 26  1  0
 10 27  1  0
 11 28  1  0
 12 29  1  0
 13 30  1  0
 16 31  1  0
M  RAD  1  15   3
M  END
$$$$
