
     RDKit          3D

 31 32  0  0  0  0  0  0  0  0999 V2000
   -2.4984   -0.8871    2.1230 C   0  0  0  0  0  0  0  0  0  0  0  0
   -2.2437   -0.1761    0.8271 C   0  0  0  0  0  0  0  0  0  0  0  0
   -3.0105    0.9435    0.4706 C   0  0  0  0  0  0  0  0  0  0  0  0
   -2.7845    1.5920   -0.7462 C   0  0  0  0  0  0  0  0  0  0  0  0
   -1.8022    1.1213   -1.6210 C   0  0  0  0  0  0  0  0  0  0  0  0
   -1.0475   -0.0151   -1.2908 C   0  0  0  0  0  0  0  0  0  0  0  0
    0.0443   -0.4951   -2.2131 C   0  0  0  0  0  0  0  0  0  0  0  0
    1.3467    0.2929   -2.0108 C   0  0  0  0  0  0  0  0  0  0  0  0
    1.9183    0.0903   -0.6260 C   0  0  0  0  0  0  0  0  0  0  0  0
    1.6500    1.0360    0.3798 C   0  0  0  0  0  0  0  0  0  0  0  0
    2.1247    0.8416    1.6793 C   0  0  0  0  0  0  0  0  0  0  0  0
    2.8692   -0.2979    1.9894 C   0  0  0  0  0  0  0  0  0  0  0  0
    3.1386   -1.2477    1.0012 C   0  0  0  0  0  0  0  0  0  0  0  0
    2.6649   -1.0630   -0.3033 C   0  0  0  0  0  0  0  0  0  0  0  0
    2.9425   -2.0536   -1.2906 N   0  0  0  0  0  1  0  0  0  0  0  0
   -1.2745   -0.6615   -0.0641 C   0  0  0  0  0  0  0  0  0  0  0  0
   -3.2328   -1.7029    1.9584 H   0  0  0  0  0  0  0  0  0  0  0  0
   -2.9004   -0.1857    2.8849 H   0  0  0  0  0  0  0  0  0  0  0  0
   -1.5562   -1.3214    2.5205 H   0  0  0  0  0  0  0  0  0  0  0  0
   -3.7781    1.3179    1.1366 H   0  0  0  0  0  0  0  0  0  0  0  0
   -3.3698    2.4632   -1.0105 H   0  0  0  0  0  0  0  0  0  0  0  0
   -1.6283    1.6419   -2.5546 H   0  0  0  0  0  0  0  0  0  0  0  0
   -0.2866   -0.3753   -3.2677 H   0  0  0  0  0  0  0  0  0  0  0  0
    0.2314   -1.5804   -2.0599 H   0  0  0  0  0  0  0  0  0  0  0  0
    1.1604    1.3732   -2.1997 H   0  0  0  0  0  0  0  0  0  0  0  0
    2.0884   -0.0328   -2.7715 H   0  0  0  0  0  0  0  0  0  0  0  0
    1.0617    1.9185    0.1601 H   0  0  0  0  0  0  0  0  0  0  0  0
    1.9111    1.5733    2.4478 H   0  0  0  0  0  0  0  0  0  0  0  0
    3.2348   -0.4472    2.9971 H   0  0  0  0  0  0  0  0  0  0  0  0
    3.7128   -2.1310    1.2512 H   0  0  0  0  0  0  0  0  0  0  0  0
   -0.6863   -1.5318    0.2029 H   0  0  0  0  0  0  0  0  0  0  0  0
  1  2  1  0
  2  3  1  0
  3  4  2  0
  4  5  1  0
  5  6  2  0
  6  7  1  0
  7  8  1  0
  8  9  1  0
  9 10  2  0
 10 11  1  0
 11 12  2  0
 12 13  1  0
 13 14  2  0
 14 15  1  0
  6 16  1  0
 14  9  1  0
 16  2  2  0
  1 17  1  0
  1 18  1  0
  1 19  1  0
  3 20  1  0
  4 21  1  0
  5 22  1  0
  7 23  1  0
  7 24  1  0
  8 25  1  0
  8 26  1  0
 10 27  1  0
 11 28  1  0
 12 29  1  0
 13 30  1  0
 16 31  1  0
M  RAD  1  15   3
M  END
$$$$
