
     RDKit          3D

 31 32  0  0  0  0  0  0  0  0999 V2000
    2.3507    2.1107    1.1888 C   0  0  0  0  0  0  0  0  0  0  0  0
    2.2229    0.9046    0.3066 C   0  0  0  0  0  0  0  0  0  0  0  0
    2.9661    0.8135   -0.8799 C   0  0  0  0  0  0  0  0  0  0  0  0
    2.8061   -0.2857   -1.7276 C   0  0  0  0  0  0  0  0  0  0  0  0
    1.8948   -1.2942   -1.4051 C   0  0  0  0  0  0  0  0  0  0  0  0
    1.1382   -1.2126   -0.2258 C   0  0  0  0  0  0  0  0  0  0  0  0
    0.1060   -2.2655    0.0874 C   0  0  0  0  0  0  0  0  0  0  0  0
   -1.2224   -1.9939   -0.6333 C   0  0  0  0  0  0  0  0  0  0  0  0
   -1.8716   -0.7150   -0.1534 C   0  0  0  0  0  0  0  0  0  0  0  0
   -2.5760   -0.7179    1.0632 C   0  0  0  0  0  0  0  0  0  0  0  0
   -3.1443    0.4595    1.5560 C   0  0  0  0  0  0  0  0  0  0  0  0
   -3.0105    1.6527    0.8439 C   0  0  0  0  0  0  0  0  0  0  0  0
   -2.3076    1.6719   -0.3628 C   0  0  0  0  0  0  0  0  0  0  0  0
   -1.7358    0.4973   -0.8659 C   0  0  0  0  0  0  0  0  0  0  0  0
   -1.0119    0.5504   -2.0933 N   0  0  0  0  0  1  0  0  0  0  0  0
    1.2999   -0.1042    0.6223 C   0  0  0  0  0  0  0  0  0  0  0  0
    2.1809    1.8362    2.2517 H   0  0  0  0  0  0  0  0  0  0  0  0
    3.3663    2.5530    1.1064 H   0  0  0  0  0  0  0  0  0  0  0  0
    1.5991    2.8696    0.8863 H   0  0  0  0  0  0  0  0  0  0  0  0
    3.6653    1.5949   -1.1510 H   0  0  0  0  0  0  0  0  0  0  0  0
    3.3818   -0.3506   -2.6418 H   0  0  0  0  0  0  0  0  0  0  0  0
    1.7690   -2.1321   -2.0796 H   0  0  0  0  0  0  0  0  0  0  0  0
   -0.0659   -2.3249    1.1847 H   0  0  0  0  0  0  0  0  0  0  0  0
    0.4881   -3.2606   -0.2287 H   0  0  0  0  0  0  0  0  0  0  0  0
   -1.0579   -1.9743   -1.7321 H   0  0  0  0  0  0  0  0  0  0  0  0
   -1.9111   -2.8448   -0.4387 H   0  0  0  0  0  0  0  0  0  0  0  0
   -2.6787   -1.6330    1.6336 H   0  0  0  0  0  0  0  0  0  0  0  0
   -3.6851    0.4476    2.4934 H   0  0  0  0  0  0  0  0  0  0  0  0
   -3.4492    2.5642    1.2289 H   0  0  0  0  0  0  0  0  0  0  0  0
   -2.2039    2.6030   -0.9059 H   0  0  0  0  0  0  0  0  0  0  0  0
    0.6968   -0.0198    1.5189 H   0  0  0  0  0  0  0  0  0  0  0  0
  1  2  1  0
  2  3  1  0
  3  4  2  0
  4  5  1  0
  5  6  2  0
  6  7  1  0
  7  8  1  0
  8  9  1  0
  9 10  2  0
 10 11  1  0
 11 12  2  0
 12 13  1  0
 13 14  2  0
 14 15  1  0
  6 16  1  0
 14  9  1  0
 16  2  2  0
  1 17  1  0
  1 18  1  0
  1 19  1  0
  3 20  1  0
  4 21  1  0
  5 22  1  0
  7 23  1  0
  7 24  1  0
  8 25  1  0
  8 26  1  0
 10 27  1  0
 11 28  1  0
 12 29  1  0
 13 30  1  0
 16 31  1  0
M  RAD  1  15   3
M  END
$$$$
