
     RDKit          3D

 28 29  0  0  0  0  0  0  0  0999 V2000
   -1.5211    2.5663    1.6886 N   0  0  0  0  0  1  0  0  0  0  0  0
   -2.6890    1.8044    0.6692 S   0  0  0  0  0  0  0  0  0  0  0  0
   -4.0182    1.8228    1.3710 O   0  0  0  0  0  0  0  0  0  0  0  0
   -2.8187    2.5702   -0.6174 O   0  0  0  0  0  0  0  0  0  0  0  0
   -2.1973    0.1363    0.3229 C   0  0  0  0  0  0  0  0  0  0  0  0
   -3.0312   -0.9069    0.7631 C   0  0  0  0  0  0  0  0  0  0  0  0
   -2.7223   -2.2372    0.4794 C   0  0  0  0  0  0  0  0  0  0  0  0
   -1.5813   -2.5475   -0.2553 C   0  0  0  0  0  0  0  0  0  0  0  0
   -0.7378   -1.5294   -0.6983 C   0  0  0  0  0  0  0  0  0  0  0  0
   -1.0153   -0.1800   -0.4035 C   0  0  0  0  0  0  0  0  0  0  0  0
   -0.0438    0.8692   -0.9081 C   0  0  0  0  0  0  0  0  0  0  0  0
    1.3436    0.6354   -0.3635 C   0  0  0  0  0  0  0  0  0  0  0  0
    2.3773    0.1947   -1.2082 C   0  0  0  0  0  0  0  0  0  0  0  0
    3.6580   -0.0331   -0.6950 C   0  0  0  0  0  0  0  0  0  0  0  0
    3.9161    0.1745    0.6626 C   0  0  0  0  0  0  0  0  0  0  0  0
    2.8934    0.6087    1.5099 C   0  0  0  0  0  0  0  0  0  0  0  0
    1.6114    0.8377    1.0011 C   0  0  0  0  0  0  0  0  0  0  0  0
   -3.9320   -0.6956    1.3237 H   0  0  0  0  0  0  0  0  0  0  0  0
   -3.3753   -3.0292    0.8229 H   0  0  0  0  0  0  0  0  0  0  0  0
   -1.3490   -3.5799   -0.4828 H   0  0  0  0  0  0  0  0  0  0  0  0
    0.1422   -1.7952   -1.2712 H   0  0  0  0  0  0  0  0  0  0  0  0
   -0.0386    0.8349   -2.0193 H   0  0  0  0  0  0  0  0  0  0  0  0
   -0.3422    1.8990   -0.6394 H   0  0  0  0  0  0  0  0  0  0  0  0
    2.1923    0.0241   -2.2614 H   0  0  0  0  0  0  0  0  0  0  0  0
    4.4502   -0.3722   -1.3498 H   0  0  0  0  0  0  0  0  0  0  0  0
    4.9078   -0.0031    1.0581 H   0  0  0  0  0  0  0  0  0  0  0  0
    3.0934    0.7657    2.5620 H   0  0  0  0  0  0  0  0  0  0  0  0
    0.8274    1.1657    1.6705 H   0  0  0  0  0  0  0  0  0  0  0  0
  1  2  1  0
  2  3  2  0
  2  4  2  0
  2  5  1  0
  5  6  2  0
  6  7  1  0
  7  8  2  0
  8  9  1  0
  9 10  2  0
 10 11  1  0
 11 12  1  0
 12 13  2  0
 13 14  1  0
 14 15  2  0
 15 16  1  0
 16 17  2  0
 10  5  1  0
 17 12  1  0
  6 18  1  0
  7 19  1  0
  8 20  1  0
  9 21  1  0
 11 22  1  0
 11 23  1  0
 13 24  1  0
 14 25  1  0
 15 26  1  0
 16 27  1  0
 17 28  1  0
M  RAD  1   1   3
M  END
$$$$
