
     RDKit          3D

 28 29  0  0  0  0  0  0  0  0999 V2000
   -1.5195    1.8176    2.4122 N   0  0  0  0  0  1  0  0  0  0  0  0
   -2.7223    1.3389    1.2687 S   0  0  0  0  0  0  0  0  0  0  0  0
   -2.9846    2.4619    0.3052 O   0  0  0  0  0  0  0  0  0  0  0  0
   -3.9947    1.0415    2.0119 O   0  0  0  0  0  0  0  0  0  0  0  0
   -2.1784   -0.0951    0.3787 C   0  0  0  0  0  0  0  0  0  0  0  0
   -2.9258   -1.2793    0.5066 C   0  0  0  0  0  0  0  0  0  0  0  0
   -2.5754   -2.4263   -0.2057 C   0  0  0  0  0  0  0  0  0  0  0  0
   -1.4789   -2.4077   -1.0632 C   0  0  0  0  0  0  0  0  0  0  0  0
   -0.7208   -1.2457   -1.2022 C   0  0  0  0  0  0  0  0  0  0  0  0
   -1.0401   -0.0820   -0.4751 C   0  0  0  0  0  0  0  0  0  0  0  0
   -0.1606    1.1378   -0.6695 C   0  0  0  0  0  0  0  0  0  0  0  0
    1.2732    0.8405   -0.3066 C   0  0  0  0  0  0  0  0  0  0  0  0
    2.2609    0.7630   -1.3041 C   0  0  0  0  0  0  0  0  0  0  0  0
    3.5858    0.4739   -0.9630 C   0  0  0  0  0  0  0  0  0  0  0  0
    3.9345    0.2580    0.3728 C   0  0  0  0  0  0  0  0  0  0  0  0
    2.9583    0.3292    1.3701 C   0  0  0  0  0  0  0  0  0  0  0  0
    1.6323    0.6180    1.0336 C   0  0  0  0  0  0  0  0  0  0  0  0
   -3.7914   -1.3196    1.1544 H   0  0  0  0  0  0  0  0  0  0  0  0
   -3.1621   -3.3296   -0.0989 H   0  0  0  0  0  0  0  0  0  0  0  0
   -1.2150   -3.2960   -1.6226 H   0  0  0  0  0  0  0  0  0  0  0  0
    0.1256   -1.2544   -1.8780 H   0  0  0  0  0  0  0  0  0  0  0  0
   -0.2369    1.4579   -1.7314 H   0  0  0  0  0  0  0  0  0  0  0  0
   -0.4872    2.0060   -0.0685 H   0  0  0  0  0  0  0  0  0  0  0  0
    2.0060    0.9226   -2.3444 H   0  0  0  0  0  0  0  0  0  0  0  0
    4.3422    0.4156   -1.7350 H   0  0  0  0  0  0  0  0  0  0  0  0
    4.9604    0.0335    0.6348 H   0  0  0  0  0  0  0  0  0  0  0  0
    3.2287    0.1582    2.4041 H   0  0  0  0  0  0  0  0  0  0  0  0
    0.8857    0.6617    1.8153 H   0  0  0  0  0  0  0  0  0  0  0  0
  1  2  1  0
  2  3  2  0
  2  4  2  0
  2  5  1  0
  5  6  2  0
  6  7  1  0
  7  8  2  0
  8  9  1  0
  9 10  2  0
 10 11  1  0
 11 12  1  0
 12 13  2  0
 13 14  1  0
 14 15  2  0
 15 16  1  0
 16 17  2  0
 10  5  1  0
 17 12  1  0
  6 18  1  0
  7 19  1  0
  8 20  1  0
  9 21  1  0
 11 22  1  0
 11 23  1  0
 13 24  1  0
 14 25  1  0
 15 26  1  0
 16 27  1  0
 17 28  1  0
M  RAD  1   1   3
M  END
$$$$
