
     RDKit          3D

 28 29  0  0  0  0  0  0  0  0999 V2000
   -2.5191    3.1795   -0.7280 N   0  0  0  0  0  1  0  0  0  0  0  0
   -1.3467    2.1368   -0.0023 S   0  0  0  0  0  0  0  0  0  0  0  0
   -1.2801    2.4662    1.4617 O   0  0  0  0  0  0  0  0  0  0  0  0
   -0.0144    2.3989   -0.6442 O   0  0  0  0  0  0  0  0  0  0  0  0
   -1.8011    0.4384   -0.2426 C   0  0  0  0  0  0  0  0  0  0  0  0
   -2.8203    0.1511   -1.1674 C   0  0  0  0  0  0  0  0  0  0  0  0
   -3.2105   -1.1645   -1.4167 C   0  0  0  0  0  0  0  0  0  0  0  0
   -2.5852   -2.2159   -0.7525 C   0  0  0  0  0  0  0  0  0  0  0  0
   -1.5668   -1.9559    0.1637 C   0  0  0  0  0  0  0  0  0  0  0  0
   -1.1591   -0.6355    0.4361 C   0  0  0  0  0  0  0  0  0  0  0  0
   -0.0309   -0.4305    1.4277 C   0  0  0  0  0  0  0  0  0  0  0  0
    1.2694   -0.0760    0.7500 C   0  0  0  0  0  0  0  0  0  0  0  0
    2.0153    1.0326    1.1876 C   0  0  0  0  0  0  0  0  0  0  0  0
    3.2352    1.3470    0.5809 C   0  0  0  0  0  0  0  0  0  0  0  0
    3.7290    0.5494   -0.4544 C   0  0  0  0  0  0  0  0  0  0  0  0
    3.0072   -0.5684   -0.8802 C   0  0  0  0  0  0  0  0  0  0  0  0
    1.7868   -0.8866   -0.2768 C   0  0  0  0  0  0  0  0  0  0  0  0
   -3.3169    0.9452   -1.7083 H   0  0  0  0  0  0  0  0  0  0  0  0
   -3.9973   -1.3692   -2.1314 H   0  0  0  0  0  0  0  0  0  0  0  0
   -2.8868   -3.2363   -0.9512 H   0  0  0  0  0  0  0  0  0  0  0  0
   -1.0897   -2.7927    0.6590 H   0  0  0  0  0  0  0  0  0  0  0  0
    0.1389   -1.3548    2.0216 H   0  0  0  0  0  0  0  0  0  0  0  0
   -0.3225    0.3354    2.1732 H   0  0  0  0  0  0  0  0  0  0  0  0
    1.6500    1.6588    1.9920 H   0  0  0  0  0  0  0  0  0  0  0  0
    3.7991    2.2081    0.9155 H   0  0  0  0  0  0  0  0  0  0  0  0
    4.6739    0.7938   -0.9222 H   0  0  0  0  0  0  0  0  0  0  0  0
    3.3956   -1.1914   -1.6755 H   0  0  0  0  0  0  0  0  0  0  0  0
    1.2469   -1.7636   -0.6104 H   0  0  0  0  0  0  0  0  0  0  0  0
  1  2  1  0
  2  3  2  0
  2  4  2  0
  2  5  1  0
  5  6  2  0
  6  7  1  0
  7  8  2  0
  8  9  1  0
  9 10  2  0
 10 11  1  0
 11 12  1  0
 12 13  2  0
 13 14  1  0
 14 15  2  0
 15 16  1  0
 16 17  2  0
 10  5  1  0
 17 12  1  0
  6 18  1  0
  7 19  1  0
  8 20  1  0
  9 21  1  0
 11 22  1  0
 11 23  1  0
 13 24  1  0
 14 25  1  0
 15 26  1  0
 16 27  1  0
 17 28  1  0
M  RAD  1   1   3
M  END
$$$$
