
     RDKit          3D

 28 29  0  0  0  0  0  0  0  0999 V2000
   -3.1457   -0.9066    2.4954 N   0  0  0  0  0  1  0  0  0  0  0  0
   -1.8060   -1.0585    1.4137 S   0  0  0  0  0  0  0  0  0  0  0  0
   -1.9006   -2.4019    0.7484 O   0  0  0  0  0  0  0  0  0  0  0  0
   -0.5370   -0.9744    2.2128 O   0  0  0  0  0  0  0  0  0  0  0  0
   -1.8386    0.2422    0.2070 C   0  0  0  0  0  0  0  0  0  0  0  0
   -2.7092    1.3244    0.4249 C   0  0  0  0  0  0  0  0  0  0  0  0
   -2.7680    2.3881   -0.4754 C   0  0  0  0  0  0  0  0  0  0  0  0
   -1.9540    2.3928   -1.6044 C   0  0  0  0  0  0  0  0  0  0  0  0
   -1.0773    1.3339   -1.8377 C   0  0  0  0  0  0  0  0  0  0  0  0
   -1.0039    0.2462   -0.9459 C   0  0  0  0  0  0  0  0  0  0  0  0
   -0.0122   -0.8585   -1.2527 C   0  0  0  0  0  0  0  0  0  0  0  0
    1.2062   -0.7966   -0.3653 C   0  0  0  0  0  0  0  0  0  0  0  0
    1.9551    0.3895   -0.2578 C   0  0  0  0  0  0  0  0  0  0  0  0
    3.1001    0.4311    0.5435 C   0  0  0  0  0  0  0  0  0  0  0  0
    3.5170   -0.7121    1.2299 C   0  0  0  0  0  0  0  0  0  0  0  0
    2.7936   -1.9013    1.1104 C   0  0  0  0  0  0  0  0  0  0  0  0
    1.6480   -1.9479    0.3101 C   0  0  0  0  0  0  0  0  0  0  0  0
   -3.3454    1.3557    1.2989 H   0  0  0  0  0  0  0  0  0  0  0  0
   -3.4440    3.2137   -0.2937 H   0  0  0  0  0  0  0  0  0  0  0  0
   -1.9984    3.2216   -2.2992 H   0  0  0  0  0  0  0  0  0  0  0  0
   -0.4475    1.3673   -2.7183 H   0  0  0  0  0  0  0  0  0  0  0  0
    0.3341   -0.7898   -2.3069 H   0  0  0  0  0  0  0  0  0  0  0  0
   -0.5155   -1.8430   -1.1836 H   0  0  0  0  0  0  0  0  0  0  0  0
    1.6536    1.2810   -0.7927 H   0  0  0  0  0  0  0  0  0  0  0  0
    3.6670    1.3492    0.6286 H   0  0  0  0  0  0  0  0  0  0  0  0
    4.4041   -0.6782    1.8490 H   0  0  0  0  0  0  0  0  0  0  0  0
    3.1221   -2.7885    1.6361 H   0  0  0  0  0  0  0  0  0  0  0  0
    1.1022   -2.8793    0.2249 H   0  0  0  0  0  0  0  0  0  0  0  0
  1  2  1  0
  2  3  2  0
  2  4  2  0
  2  5  1  0
  5  6  2  0
  6  7  1  0
  7  8  2  0
  8  9  1  0
  9 10  2  0
 10 11  1  0
 11 12  1  0
 12 13  2  0
 13 14  1  0
 14 15  2  0
 15 16  1  0
 16 17  2  0
 10  5  1  0
 17 12  1  0
  6 18  1  0
  7 19  1  0
  8 20  1  0
  9 21  1  0
 11 22  1  0
 11 23  1  0
 13 24  1  0
 14 25  1  0
 15 26  1  0
 16 27  1  0
 17 28  1  0
M  RAD  1   1   3
M  END
$$$$
