
     RDKit          3D

 28 29  0  0  0  0  0  0  0  0999 V2000
   -1.4771   -3.8389   -0.1599 N   0  0  0  0  0  1  0  0  0  0  0  0
   -0.6729   -2.4055    0.3756 S   0  0  0  0  0  0  0  0  0  0  0  0
    0.6930   -2.3649   -0.2478 O   0  0  0  0  0  0  0  0  0  0  0  0
   -0.5481   -2.4781    1.8708 O   0  0  0  0  0  0  0  0  0  0  0  0
   -1.5924   -0.9668   -0.1074 C   0  0  0  0  0  0  0  0  0  0  0  0
   -2.6294   -1.1283   -1.0430 C   0  0  0  0  0  0  0  0  0  0  0  0
   -3.3768   -0.0343   -1.4788 C   0  0  0  0  0  0  0  0  0  0  0  0
   -3.0972    1.2400   -0.9936 C   0  0  0  0  0  0  0  0  0  0  0  0
   -2.0686    1.4258   -0.0707 C   0  0  0  0  0  0  0  0  0  0  0  0
   -1.3037    0.3358    0.3883 C   0  0  0  0  0  0  0  0  0  0  0  0
   -0.1877    0.6165    1.3752 C   0  0  0  0  0  0  0  0  0  0  0  0
    1.1750    0.5552    0.7309 C   0  0  0  0  0  0  0  0  0  0  0  0
    1.4601    1.3172   -0.4168 C   0  0  0  0  0  0  0  0  0  0  0  0
    2.7341    1.2781   -0.9915 C   0  0  0  0  0  0  0  0  0  0  0  0
    3.7377    0.4935   -0.4180 C   0  0  0  0  0  0  0  0  0  0  0  0
    3.4712   -0.2480    0.7357 C   0  0  0  0  0  0  0  0  0  0  0  0
    2.1988   -0.2120    1.3142 C   0  0  0  0  0  0  0  0  0  0  0  0
   -2.8629   -2.1036   -1.4476 H   0  0  0  0  0  0  0  0  0  0  0  0
   -4.1723   -0.1752   -2.1992 H   0  0  0  0  0  0  0  0  0  0  0  0
   -3.6758    2.0880   -1.3369 H   0  0  0  0  0  0  0  0  0  0  0  0
   -1.8650    2.4291    0.2829 H   0  0  0  0  0  0  0  0  0  0  0  0
   -0.2631   -0.0801    2.2333 H   0  0  0  0  0  0  0  0  0  0  0  0
   -0.3058    1.6287    1.8197 H   0  0  0  0  0  0  0  0  0  0  0  0
    0.6980    1.9404   -0.8669 H   0  0  0  0  0  0  0  0  0  0  0  0
    2.9445    1.8602   -1.8795 H   0  0  0  0  0  0  0  0  0  0  0  0
    4.7236    0.4652   -0.8638 H   0  0  0  0  0  0  0  0  0  0  0  0
    4.2518   -0.8491    1.1838 H   0  0  0  0  0  0  0  0  0  0  0  0
    2.0111   -0.7889    2.2111 H   0  0  0  0  0  0  0  0  0  0  0  0
  1  2  1  0
  2  3  2  0
  2  4  2  0
  2  5  1  0
  5  6  2  0
  6  7  1  0
  7  8  2  0
  8  9  1  0
  9 10  2  0
 10 11  1  0
 11 12  1  0
 12 13  2  0
 13 14  1  0
 14 15  2  0
 15 16  1  0
 16 17  2  0
 10  5  1  0
 17 12  1  0
  6 18  1  0
  7 19  1  0
  8 20  1  0
  9 21  1  0
 11 22  1  0
 11 23  1  0
 13 24  1  0
 14 25  1  0
 15 26  1  0
 16 27  1  0
 17 28  1  0
M  RAD  1   1   3
M  END
$$$$
