
     RDKit          3D

 28 29  0  0  0  0  0  0  0  0999 V2000
   -2.6261   -2.5045   -1.8798 N   0  0  0  0  0  1  0  0  0  0  0  0
   -1.3367   -1.9209   -0.8872 S   0  0  0  0  0  0  0  0  0  0  0  0
   -0.1401   -1.6706   -1.7597 O   0  0  0  0  0  0  0  0  0  0  0  0
   -1.0159   -2.9842    0.1242 O   0  0  0  0  0  0  0  0  0  0  0  0
   -1.8138   -0.4134   -0.0819 C   0  0  0  0  0  0  0  0  0  0  0  0
   -2.9778    0.2357   -0.5297 C   0  0  0  0  0  0  0  0  0  0  0  0
   -3.3961    1.4343    0.0479 C   0  0  0  0  0  0  0  0  0  0  0  0
   -2.6561    2.0087    1.0774 C   0  0  0  0  0  0  0  0  0  0  0  0
   -1.4942    1.3871    1.5332 C   0  0  0  0  0  0  0  0  0  0  0  0
   -1.0546    0.1735    0.9693 C   0  0  0  0  0  0  0  0  0  0  0  0
    0.2290   -0.4332    1.5008 C   0  0  0  0  0  0  0  0  0  0  0  0
    1.3871   -0.2436    0.5528 C   0  0  0  0  0  0  0  0  0  0  0  0
    1.7217    1.0374    0.0771 C   0  0  0  0  0  0  0  0  0  0  0  0
    2.8144    1.2097   -0.7779 C   0  0  0  0  0  0  0  0  0  0  0  0
    3.5917    0.1107   -1.1518 C   0  0  0  0  0  0  0  0  0  0  0  0
    3.2820   -1.1618   -0.6654 C   0  0  0  0  0  0  0  0  0  0  0  0
    2.1903   -1.3391    0.1900 C   0  0  0  0  0  0  0  0  0  0  0  0
   -3.5676   -0.1792   -1.3358 H   0  0  0  0  0  0  0  0  0  0  0  0
   -4.2949    1.9215   -0.3078 H   0  0  0  0  0  0  0  0  0  0  0  0
   -2.9804    2.9413    1.5209 H   0  0  0  0  0  0  0  0  0  0  0  0
   -0.9312    1.8605    2.3283 H   0  0  0  0  0  0  0  0  0  0  0  0
    0.5074    0.0321    2.4713 H   0  0  0  0  0  0  0  0  0  0  0  0
    0.0675   -1.5037    1.7359 H   0  0  0  0  0  0  0  0  0  0  0  0
    1.1379    1.9017    0.3668 H   0  0  0  0  0  0  0  0  0  0  0  0
    3.0614    2.1967   -1.1471 H   0  0  0  0  0  0  0  0  0  0  0  0
    4.4378    0.2461   -1.8130 H   0  0  0  0  0  0  0  0  0  0  0  0
    3.8897   -2.0113   -0.9492 H   0  0  0  0  0  0  0  0  0  0  0  0
    1.9676   -2.3316    0.5616 H   0  0  0  0  0  0  0  0  0  0  0  0
  1  2  1  0
  2  3  2  0
  2  4  2  0
  2  5  1  0
  5  6  2  0
  6  7  1  0
  7  8  2  0
  8  9  1  0
  9 10  2  0
 10 11  1  0
 11 12  1  0
 12 13  2  0
 13 14  1  0
 14 15  2  0
 15 16  1  0
 16 17  2  0
 10  5  1  0
 17 12  1  0
  6 18  1  0
  7 19  1  0
  8 20  1  0
  9 21  1  0
 11 22  1  0
 11 23  1  0
 13 24  1  0
 14 25  1  0
 15 26  1  0
 16 27  1  0
 17 28  1  0
M  RAD  1   1   3
M  END
$$$$
