
     RDKit          3D

 28 29  0  0  0  0  0  0  0  0999 V2000
   -2.4910    2.1858    2.4417 N   0  0  0  0  0  1  0  0  0  0  0  0
   -1.3846    1.7469    1.1881 S   0  0  0  0  0  0  0  0  0  0  0  0
    0.0046    1.7436    1.7590 O   0  0  0  0  0  0  0  0  0  0  0  0
   -1.4860    2.7790    0.1014 O   0  0  0  0  0  0  0  0  0  0  0  0
   -1.7752    0.1342    0.5592 C   0  0  0  0  0  0  0  0  0  0  0  0
   -2.6806   -0.6578    1.2870 C   0  0  0  0  0  0  0  0  0  0  0  0
   -3.0141   -1.9420    0.8571 C   0  0  0  0  0  0  0  0  0  0  0  0
   -2.4444   -2.4599   -0.3025 C   0  0  0  0  0  0  0  0  0  0  0  0
   -1.5383   -1.6958   -1.0369 C   0  0  0  0  0  0  0  0  0  0  0  0
   -1.1900   -0.3944   -0.6257 C   0  0  0  0  0  0  0  0  0  0  0  0
   -0.1820    0.3690   -1.4619 C   0  0  0  0  0  0  0  0  0  0  0  0
    1.1775    0.4244   -0.8103 C   0  0  0  0  0  0  0  0  0  0  0  0
    1.8481    1.6530   -0.6774 C   0  0  0  0  0  0  0  0  0  0  0  0
    3.1206    1.7041   -0.1002 C   0  0  0  0  0  0  0  0  0  0  0  0
    3.7413    0.5298    0.3329 C   0  0  0  0  0  0  0  0  0  0  0  0
    3.0936   -0.6989    0.1831 C   0  0  0  0  0  0  0  0  0  0  0  0
    1.8210   -0.7551   -0.3932 C   0  0  0  0  0  0  0  0  0  0  0  0
   -3.1307   -0.2883    2.1983 H   0  0  0  0  0  0  0  0  0  0  0  0
   -3.7133   -2.5391    1.4284 H   0  0  0  0  0  0  0  0  0  0  0  0
   -2.7016   -3.4585   -0.6316 H   0  0  0  0  0  0  0  0  0  0  0  0
   -1.1016   -2.1265   -1.9296 H   0  0  0  0  0  0  0  0  0  0  0  0
   -0.5693    1.3837   -1.6807 H   0  0  0  0  0  0  0  0  0  0  0  0
   -0.0598   -0.1093   -2.4580 H   0  0  0  0  0  0  0  0  0  0  0  0
    1.3839    2.5723   -1.0120 H   0  0  0  0  0  0  0  0  0  0  0  0
    3.6267    2.6546    0.0089 H   0  0  0  0  0  0  0  0  0  0  0  0
    4.7268    0.5713    0.7785 H   0  0  0  0  0  0  0  0  0  0  0  0
    3.5796   -1.6092    0.5097 H   0  0  0  0  0  0  0  0  0  0  0  0
    1.3389   -1.7168   -0.5133 H   0  0  0  0  0  0  0  0  0  0  0  0
  1  2  1  0
  2  3  2  0
  2  4  2  0
  2  5  1  0
  5  6  2  0
  6  7  1  0
  7  8  2  0
  8  9  1  0
  9 10  2  0
 10 11  1  0
 11 12  1  0
 12 13  2  0
 13 14  1  0
 14 15  2  0
 15 16  1  0
 16 17  2  0
 10  5  1  0
 17 12  1  0
  6 18  1  0
  7 19  1  0
  8 20  1  0
  9 21  1  0
 11 22  1  0
 11 23  1  0
 13 24  1  0
 14 25  1  0
 15 26  1  0
 16 27  1  0
 17 28  1  0
M  RAD  1   1   3
M  END
$$$$
