
     RDKit          3D

 28 29  0  0  0  0  0  0  0  0999 V2000
   -1.1315   -1.7637    2.6982 N   0  0  0  0  0  1  0  0  0  0  0  0
   -2.3551   -1.7914    1.4794 S   0  0  0  0  0  0  0  0  0  0  0  0
   -2.2726   -3.0762    0.7041 O   0  0  0  0  0  0  0  0  0  0  0  0
   -3.6982   -1.7254    2.1510 O   0  0  0  0  0  0  0  0  0  0  0  0
   -2.1477   -0.4167    0.3786 C   0  0  0  0  0  0  0  0  0  0  0  0
   -3.1772    0.5385    0.3076 C   0  0  0  0  0  0  0  0  0  0  0  0
   -3.0931    1.6160   -0.5742 C   0  0  0  0  0  0  0  0  0  0  0  0
   -1.9846    1.7531   -1.4052 C   0  0  0  0  0  0  0  0  0  0  0  0
   -0.9499    0.8200   -1.3486 C   0  0  0  0  0  0  0  0  0  0  0  0
   -1.0005   -0.2631   -0.4492 C   0  0  0  0  0  0  0  0  0  0  0  0
    0.1690   -1.2281   -0.4366 C   0  0  0  0  0  0  0  0  0  0  0  0
    1.4592   -0.5180   -0.1093 C   0  0  0  0  0  0  0  0  0  0  0  0
    1.6795   -0.0104    1.1824 C   0  0  0  0  0  0  0  0  0  0  0  0
    2.8691    0.6596    1.4837 C   0  0  0  0  0  0  0  0  0  0  0  0
    3.8458    0.8300    0.4991 C   0  0  0  0  0  0  0  0  0  0  0  0
    3.6338    0.3320   -0.7892 C   0  0  0  0  0  0  0  0  0  0  0  0
    2.4455   -0.3387   -1.0950 C   0  0  0  0  0  0  0  0  0  0  0  0
   -4.0572    0.4504    0.9307 H   0  0  0  0  0  0  0  0  0  0  0  0
   -3.8949    2.3418   -0.6194 H   0  0  0  0  0  0  0  0  0  0  0  0
   -1.9263    2.5845   -2.0959 H   0  0  0  0  0  0  0  0  0  0  0  0
   -0.0995    0.9458   -2.0074 H   0  0  0  0  0  0  0  0  0  0  0  0
    0.2322   -1.7135   -1.4348 H   0  0  0  0  0  0  0  0  0  0  0  0
    0.0429   -2.0503    0.2912 H   0  0  0  0  0  0  0  0  0  0  0  0
    0.9287   -0.1276    1.9524 H   0  0  0  0  0  0  0  0  0  0  0  0
    3.0327    1.0488    2.4803 H   0  0  0  0  0  0  0  0  0  0  0  0
    4.7658    1.3496    0.7338 H   0  0  0  0  0  0  0  0  0  0  0  0
    4.3898    0.4672   -1.5518 H   0  0  0  0  0  0  0  0  0  0  0  0
    2.2942   -0.7140   -2.0994 H   0  0  0  0  0  0  0  0  0  0  0  0
  1  2  1  0
  2  3  2  0
  2  4  2  0
  2  5  1  0
  5  6  2  0
  6  7  1  0
  7  8  2  0
  8  9  1  0
  9 10  2  0
 10 11  1  0
 11 12  1  0
 12 13  2  0
 13 14  1  0
 14 15  2  0
 15 16  1  0
 16 17  2  0
 10  5  1  0
 17 12  1  0
  6 18  1  0
  7 19  1  0
  8 20  1  0
  9 21  1  0
 11 22  1  0
 11 23  1  0
 13 24  1  0
 14 25  1  0
 15 26  1  0
 16 27  1  0
 17 28  1  0
M  RAD  1   1   3
M  END
$$$$
