
     RDKit          3D

 21 21  0  0  0  0  0  0  0  0999 V2000
   -1.2351    2.0794   -0.8450 C   0  0  0  0  0  0  0  0  0  0  0  0
   -1.0301    1.3219    0.4642 C   0  0  0  0  0  0  0  0  0  0  0  0
    0.1309    0.3586    0.3550 C   0  0  0  0  0  0  0  0  0  0  0  0
    1.4309    0.8754    0.5076 C   0  0  0  0  0  0  0  0  0  0  0  0
    2.5470    0.0468    0.3922 C   0  0  0  0  0  0  0  0  0  0  0  0
    2.3838   -1.3090    0.1183 C   0  0  0  0  0  0  0  0  0  0  0  0
    1.1042   -1.8412   -0.0440 C   0  0  0  0  0  0  0  0  0  0  0  0
   -0.0339   -1.0230    0.0638 C   0  0  0  0  0  0  0  0  0  0  0  0
   -1.6298   -1.7681   -0.1380 S   0  0  0  0  0  0  0  0  0  0  0  0
   -2.4700   -1.7526    1.3715 N   0  0  0  0  0  1  0  0  0  0  0  0
   -1.4858   -3.1934   -0.5932 O   0  0  0  0  0  0  0  0  0  0  0  0
   -2.4245   -1.0181   -1.1689 O   0  0  0  0  0  0  0  0  0  0  0  0
   -1.4174    1.3733   -1.6817 H   0  0  0  0  0  0  0  0  0  0  0  0
   -2.1117    2.7544   -0.7509 H   0  0  0  0  0  0  0  0  0  0  0  0
   -0.3394    2.6933   -1.0791 H   0  0  0  0  0  0  0  0  0  0  0  0
   -0.8285    2.0569    1.2739 H   0  0  0  0  0  0  0  0  0  0  0  0
   -1.9699    0.8084    0.7462 H   0  0  0  0  0  0  0  0  0  0  0  0
    1.5803    1.9281    0.7157 H   0  0  0  0  0  0  0  0  0  0  0  0
    3.5409    0.4578    0.5144 H   0  0  0  0  0  0  0  0  0  0  0  0
    3.2513   -1.9505    0.0310 H   0  0  0  0  0  0  0  0  0  0  0  0
    1.0068   -2.8983   -0.2530 H   0  0  0  0  0  0  0  0  0  0  0  0
  1  2  1  0
  2  3  1  0
  3  4  2  0
  4  5  1  0
  5  6  2  0
  6  7  1  0
  7  8  2  0
  8  9  1  0
  9 10  1  0
  9 11  2  0
  9 12  2  0
  8  3  1  0
  1 13  1  0
  1 14  1  0
  1 15  1  0
  2 16  1  0
  2 17  1  0
  4 18  1  0
  5 19  1  0
  6 20  1  0
  7 21  1  0
M  RAD  1  10   3
M  END
$$$$
