
     RDKit          3D

 21 21  0  0  0  0  0  0  0  0999 V2000
    2.3467    0.7614   -0.6905 C   0  0  0  0  0  0  0  0  0  0  0  0
    1.5918    0.3885    0.5826 C   0  0  0  0  0  0  0  0  0  0  0  0
    0.3053   -0.3367    0.2552 C   0  0  0  0  0  0  0  0  0  0  0  0
    0.3820   -1.7099   -0.0428 C   0  0  0  0  0  0  0  0  0  0  0  0
   -0.7626   -2.4327   -0.3791 C   0  0  0  0  0  0  0  0  0  0  0  0
   -2.0004   -1.7960   -0.4278 C   0  0  0  0  0  0  0  0  0  0  0  0
   -2.0983   -0.4335   -0.1431 C   0  0  0  0  0  0  0  0  0  0  0  0
   -0.9567    0.3146    0.1937 C   0  0  0  0  0  0  0  0  0  0  0  0
   -1.1558    2.0379    0.5592 S   0  0  0  0  0  0  0  0  0  0  0  0
   -0.8398    2.3136    2.2351 N   0  0  0  0  0  1  0  0  0  0  0  0
   -2.5617    2.4756    0.2569 O   0  0  0  0  0  0  0  0  0  0  0  0
   -0.2132    2.8564   -0.2765 O   0  0  0  0  0  0  0  0  0  0  0  0
    2.6364   -0.1543   -1.2487 H   0  0  0  0  0  0  0  0  0  0  0  0
    1.7183    1.3999   -1.3457 H   0  0  0  0  0  0  0  0  0  0  0  0
    3.2686    1.3207   -0.4260 H   0  0  0  0  0  0  0  0  0  0  0  0
    1.4123    1.2989    1.1871 H   0  0  0  0  0  0  0  0  0  0  0  0
    2.2408   -0.2674    1.2031 H   0  0  0  0  0  0  0  0  0  0  0  0
    1.3356   -2.2232   -0.0160 H   0  0  0  0  0  0  0  0  0  0  0  0
   -0.6889   -3.4890   -0.6037 H   0  0  0  0  0  0  0  0  0  0  0  0
   -2.8875   -2.3593   -0.6873 H   0  0  0  0  0  0  0  0  0  0  0  0
   -3.0728    0.0346   -0.1855 H   0  0  0  0  0  0  0  0  0  0  0  0
  1  2  1  0
  2  3  1  0
  3  4  2  0
  4  5  1  0
  5  6  2  0
  6  7  1  0
  7  8  2  0
  8  9  1  0
  9 10  1  0
  9 11  2  0
  9 12  2  0
  8  3  1  0
  1 13  1  0
  1 14  1  0
  1 15  1  0
  2 16  1  0
  2 17  1  0
  4 18  1  0
  5 19  1  0
  6 20  1  0
  7 21  1  0
M  RAD  1  10   3
M  END
$$$$
