
     RDKit          3D

 21 21  0  0  0  0  0  0  0  0999 V2000
    2.5223    0.4425    0.0772 C   0  0  0  0  0  0  0  0  0  0  0  0
    1.3356    0.4069    1.0366 C   0  0  0  0  0  0  0  0  0  0  0  0
    0.1512   -0.2907    0.4055 C   0  0  0  0  0  0  0  0  0  0  0  0
    0.1362   -1.6978    0.4128 C   0  0  0  0  0  0  0  0  0  0  0  0
   -0.9130   -2.4040   -0.1758 C   0  0  0  0  0  0  0  0  0  0  0  0
   -1.9609   -1.7175   -0.7845 C   0  0  0  0  0  0  0  0  0  0  0  0
   -1.9626   -0.3223   -0.8096 C   0  0  0  0  0  0  0  0  0  0  0  0
   -0.9129    0.4087   -0.2265 C   0  0  0  0  0  0  0  0  0  0  0  0
   -0.9870    2.1791   -0.2805 S   0  0  0  0  0  0  0  0  0  0  0  0
   -1.2257    2.7967    1.3152 N   0  0  0  0  0  1  0  0  0  0  0  0
    0.2862    2.7331   -0.8540 O   0  0  0  0  0  0  0  0  0  0  0  0
   -2.1322    2.6266   -1.1453 O   0  0  0  0  0  0  0  0  0  0  0  0
    3.3664    0.9876    0.5496 H   0  0  0  0  0  0  0  0  0  0  0  0
    2.8566   -0.5899   -0.1604 H   0  0  0  0  0  0  0  0  0  0  0  0
    2.2479    0.9591   -0.8661 H   0  0  0  0  0  0  0  0  0  0  0  0
    1.0874    1.4374    1.3573 H   0  0  0  0  0  0  0  0  0  0  0  0
    1.6386   -0.1356    1.9587 H   0  0  0  0  0  0  0  0  0  0  0  0
    0.9441   -2.2512    0.8761 H   0  0  0  0  0  0  0  0  0  0  0  0
   -0.9123   -3.4863   -0.1606 H   0  0  0  0  0  0  0  0  0  0  0  0
   -2.7749   -2.2675   -1.2390 H   0  0  0  0  0  0  0  0  0  0  0  0
   -2.7908    0.1849   -1.2865 H   0  0  0  0  0  0  0  0  0  0  0  0
  1  2  1  0
  2  3  1  0
  3  4  2  0
  4  5  1  0
  5  6  2  0
  6  7  1  0
  7  8  2  0
  8  9  1  0
  9 10  1  0
  9 11  2  0
  9 12  2  0
  8  3  1  0
  1 13  1  0
  1 14  1  0
  1 15  1  0
  2 16  1  0
  2 17  1  0
  4 18  1  0
  5 19  1  0
  6 20  1  0
  7 21  1  0
M  RAD  1  10   3
M  END
$$$$
