
     RDKit          3D

 21 21  0  0  0  0  0  0  0  0999 V2000
    2.2847   -1.0942   -0.3921 C   0  0  0  0  0  0  0  0  0  0  0  0
    1.3442   -0.7867    0.7704 C   0  0  0  0  0  0  0  0  0  0  0  0
    0.2937    0.2234    0.3640 C   0  0  0  0  0  0  0  0  0  0  0  0
    0.6714    1.5782    0.3133 C   0  0  0  0  0  0  0  0  0  0  0  0
   -0.2378    2.5593   -0.0818 C   0  0  0  0  0  0  0  0  0  0  0  0
   -1.5370    2.2041   -0.4358 C   0  0  0  0  0  0  0  0  0  0  0  0
   -1.9322    0.8665   -0.3966 C   0  0  0  0  0  0  0  0  0  0  0  0
   -1.0313   -0.1389   -0.0036 C   0  0  0  0  0  0  0  0  0  0  0  0
   -1.6088   -1.8147    0.0458 S   0  0  0  0  0  0  0  0  0  0  0  0
   -0.6061   -2.8217   -0.9358 N   0  0  0  0  0  1  0  0  0  0  0  0
   -3.0159   -1.8965   -0.4766 O   0  0  0  0  0  0  0  0  0  0  0  0
   -1.5937   -2.3110    1.4641 O   0  0  0  0  0  0  0  0  0  0  0  0
    2.8402   -0.1799   -0.6912 H   0  0  0  0  0  0  0  0  0  0  0  0
    3.0186   -1.8677   -0.0824 H   0  0  0  0  0  0  0  0  0  0  0  0
    1.7155   -1.4724   -1.2666 H   0  0  0  0  0  0  0  0  0  0  0  0
    1.9419   -0.3791    1.6148 H   0  0  0  0  0  0  0  0  0  0  0  0
    0.8971   -1.7293    1.1403 H   0  0  0  0  0  0  0  0  0  0  0  0
    1.6787    1.8756    0.5792 H   0  0  0  0  0  0  0  0  0  0  0  0
    0.0668    3.5974   -0.1149 H   0  0  0  0  0  0  0  0  0  0  0  0
   -2.2413    2.9672   -0.7412 H   0  0  0  0  0  0  0  0  0  0  0  0
   -2.9488    0.6205   -0.6732 H   0  0  0  0  0  0  0  0  0  0  0  0
  1  2  1  0
  2  3  1  0
  3  4  2  0
  4  5  1  0
  5  6  2  0
  6  7  1  0
  7  8  2  0
  8  9  1  0
  9 10  1  0
  9 11  2  0
  9 12  2  0
  8  3  1  0
  1 13  1  0
  1 14  1  0
  1 15  1  0
  2 16  1  0
  2 17  1  0
  4 18  1  0
  5 19  1  0
  6 20  1  0
  7 21  1  0
M  RAD  1  10   3
M  END
$$$$
