
     RDKit          3D

 21 21  0  0  0  0  0  0  0  0999 V2000
    2.5442   -0.2011    0.2235 C   0  0  0  0  0  0  0  0  0  0  0  0
    1.3527    0.2505    1.0638 C   0  0  0  0  0  0  0  0  0  0  0  0
    0.0524   -0.2349    0.4624 C   0  0  0  0  0  0  0  0  0  0  0  0
   -0.3344   -1.5638    0.7171 C   0  0  0  0  0  0  0  0  0  0  0  0
   -1.5082   -2.0832    0.1710 C   0  0  0  0  0  0  0  0  0  0  0  0
   -2.3118   -1.2864   -0.6410 C   0  0  0  0  0  0  0  0  0  0  0  0
   -1.9436    0.0318   -0.9125 C   0  0  0  0  0  0  0  0  0  0  0  0
   -0.7624    0.5736   -0.3761 C   0  0  0  0  0  0  0  0  0  0  0  0
   -0.3636    2.2602   -0.7489 S   0  0  0  0  0  0  0  0  0  0  0  0
   -0.4948    3.2156    0.6845 N   0  0  0  0  0  1  0  0  0  0  0  0
    1.0329    2.3532   -1.2948 O   0  0  0  0  0  0  0  0  0  0  0  0
   -1.3138    2.8052   -1.7783 O   0  0  0  0  0  0  0  0  0  0  0  0
    3.4826    0.1947    0.6658 H   0  0  0  0  0  0  0  0  0  0  0  0
    2.4546    0.1747   -0.8170 H   0  0  0  0  0  0  0  0  0  0  0  0
    2.6030   -1.3102    0.2032 H   0  0  0  0  0  0  0  0  0  0  0  0
    1.3730    1.3522    1.1736 H   0  0  0  0  0  0  0  0  0  0  0  0
    1.4638   -0.1612    2.0907 H   0  0  0  0  0  0  0  0  0  0  0  0
    0.2791   -2.2021    1.3415 H   0  0  0  0  0  0  0  0  0  0  0  0
   -1.7944   -3.1064    0.3774 H   0  0  0  0  0  0  0  0  0  0  0  0
   -3.2232   -1.6910   -1.0621 H   0  0  0  0  0  0  0  0  0  0  0  0
   -2.5882    0.6288   -1.5439 H   0  0  0  0  0  0  0  0  0  0  0  0
  1  2  1  0
  2  3  1  0
  3  4  2  0
  4  5  1  0
  5  6  2  0
  6  7  1  0
  7  8  2  0
  8  9  1  0
  9 10  1  0
  9 11  2  0
  9 12  2  0
  8  3  1  0
  1 13  1  0
  1 14  1  0
  1 15  1  0
  2 16  1  0
  2 17  1  0
  4 18  1  0
  5 19  1  0
  6 20  1  0
  7 21  1  0
M  RAD  1  10   3
M  END
$$$$
