
     RDKit          3D

 21 21  0  0  0  0  0  0  0  0999 V2000
    2.4689    0.4272    0.5410 C   0  0  0  0  0  0  0  0  0  0  0  0
    1.5143    0.5594   -0.6429 C   0  0  0  0  0  0  0  0  0  0  0  0
    0.2413   -0.2218   -0.4015 C   0  0  0  0  0  0  0  0  0  0  0  0
    0.2813   -1.6158   -0.5913 C   0  0  0  0  0  0  0  0  0  0  0  0
   -0.8473   -2.4015   -0.3581 C   0  0  0  0  0  0  0  0  0  0  0  0
   -2.0324   -1.8096    0.0714 C   0  0  0  0  0  0  0  0  0  0  0  0
   -2.0938   -0.4298    0.2698 C   0  0  0  0  0  0  0  0  0  0  0  0
   -0.9675    0.3807    0.0430 C   0  0  0  0  0  0  0  0  0  0  0  0
   -1.1244    2.1292    0.2925 S   0  0  0  0  0  0  0  0  0  0  0  0
    0.0635    2.6814    1.4183 N   0  0  0  0  0  1  0  0  0  0  0  0
   -0.9518    2.8426   -1.0187 O   0  0  0  0  0  0  0  0  0  0  0  0
   -2.4844    2.4572    0.8422 O   0  0  0  0  0  0  0  0  0  0  0  0
    2.7804   -0.6313    0.6693 H   0  0  0  0  0  0  0  0  0  0  0  0
    3.3752    1.0423    0.3587 H   0  0  0  0  0  0  0  0  0  0  0  0
    1.9834    0.7760    1.4761 H   0  0  0  0  0  0  0  0  0  0  0  0
    1.3167    1.6310   -0.8377 H   0  0  0  0  0  0  0  0  0  0  0  0
    2.0195    0.1705   -1.5539 H   0  0  0  0  0  0  0  0  0  0  0  0
    1.1946   -2.0972   -0.9197 H   0  0  0  0  0  0  0  0  0  0  0  0
   -0.8017   -3.4723   -0.5094 H   0  0  0  0  0  0  0  0  0  0  0  0
   -2.9073   -2.4211    0.2508 H   0  0  0  0  0  0  0  0  0  0  0  0
   -3.0288    0.0029    0.6000 H   0  0  0  0  0  0  0  0  0  0  0  0
  1  2  1  0
  2  3  1  0
  3  4  2  0
  4  5  1  0
  5  6  2  0
  6  7  1  0
  7  8  2  0
  8  9  1  0
  9 10  1  0
  9 11  2  0
  9 12  2  0
  8  3  1  0
  1 13  1  0
  1 14  1  0
  1 15  1  0
  2 16  1  0
  2 17  1  0
  4 18  1  0
  5 19  1  0
  6 20  1  0
  7 21  1  0
M  RAD  1  10   3
M  END
$$$$
