
     RDKit          3D

 21 21  0  0  0  0  0  0  0  0999 V2000
   -1.8219   -1.7876    0.2207 C   0  0  0  0  0  0  0  0  0  0  0  0
   -0.7553   -1.3569   -0.7826 C   0  0  0  0  0  0  0  0  0  0  0  0
   -0.2398    0.0285   -0.4620 C   0  0  0  0  0  0  0  0  0  0  0  0
   -1.0089    1.1298   -0.8815 C   0  0  0  0  0  0  0  0  0  0  0  0
   -0.6048    2.4338   -0.5951 C   0  0  0  0  0  0  0  0  0  0  0  0
    0.5703    2.6591    0.1179 C   0  0  0  0  0  0  0  0  0  0  0  0
    1.3444    1.5816    0.5498 C   0  0  0  0  0  0  0  0  0  0  0  0
    0.9531    0.2594    0.2759 C   0  0  0  0  0  0  0  0  0  0  0  0
    1.9922   -1.0613    0.8405 S   0  0  0  0  0  0  0  0  0  0  0  0
    2.7140   -1.8496   -0.5169 N   0  0  0  0  0  1  0  0  0  0  0  0
    1.1864   -2.0511    1.6329 O   0  0  0  0  0  0  0  0  0  0  0  0
    3.0853   -0.5242    1.7215 O   0  0  0  0  0  0  0  0  0  0  0  0
   -1.4164   -1.7734    1.2538 H   0  0  0  0  0  0  0  0  0  0  0  0
   -2.6982   -1.1069    0.1673 H   0  0  0  0  0  0  0  0  0  0  0  0
   -2.1600   -2.8185   -0.0153 H   0  0  0  0  0  0  0  0  0  0  0  0
    0.0585   -2.1076   -0.8033 H   0  0  0  0  0  0  0  0  0  0  0  0
   -1.2012   -1.3611   -1.8012 H   0  0  0  0  0  0  0  0  0  0  0  0
   -1.9290    0.9765   -1.4325 H   0  0  0  0  0  0  0  0  0  0  0  0
   -1.2053    3.2714   -0.9261 H   0  0  0  0  0  0  0  0  0  0  0  0
    0.8829    3.6719    0.3374 H   0  0  0  0  0  0  0  0  0  0  0  0
    2.2540    1.7860    1.0990 H   0  0  0  0  0  0  0  0  0  0  0  0
  1  2  1  0
  2  3  1  0
  3  4  2  0
  4  5  1  0
  5  6  2  0
  6  7  1  0
  7  8  2  0
  8  9  1  0
  9 10  1  0
  9 11  2  0
  9 12  2  0
  8  3  1  0
  1 13  1  0
  1 14  1  0
  1 15  1  0
  2 16  1  0
  2 17  1  0
  4 18  1  0
  5 19  1  0
  6 20  1  0
  7 21  1  0
M  RAD  1  10   3
M  END
$$$$
