
     RDKit          3D

 21 21  0  0  0  0  0  0  0  0999 V2000
    2.4111   -0.7255   -0.4731 C   0  0  0  0  0  0  0  0  0  0  0  0
    1.5936   -0.1490    0.6798 C   0  0  0  0  0  0  0  0  0  0  0  0
    0.1112   -0.2933    0.4163 C   0  0  0  0  0  0  0  0  0  0  0  0
   -0.4856   -1.5399    0.6815 C   0  0  0  0  0  0  0  0  0  0  0  0
   -1.8426   -1.7488    0.4356 C   0  0  0  0  0  0  0  0  0  0  0  0
   -2.6242   -0.7190   -0.0827 C   0  0  0  0  0  0  0  0  0  0  0  0
   -2.0514    0.5228   -0.3598 C   0  0  0  0  0  0  0  0  0  0  0  0
   -0.6849    0.7533   -0.1237 C   0  0  0  0  0  0  0  0  0  0  0  0
   -0.0265    2.3594   -0.4835 S   0  0  0  0  0  0  0  0  0  0  0  0
    0.4142    3.1468    0.9898 N   0  0  0  0  0  1  0  0  0  0  0  0
   -1.0556    3.1988   -1.1877 O   0  0  0  0  0  0  0  0  0  0  0  0
    1.1774    2.2377   -1.3738 O   0  0  0  0  0  0  0  0  0  0  0  0
    2.1537   -0.2199   -1.4270 H   0  0  0  0  0  0  0  0  0  0  0  0
    2.2158   -1.8141   -0.5771 H   0  0  0  0  0  0  0  0  0  0  0  0
    3.4931   -0.5780   -0.2722 H   0  0  0  0  0  0  0  0  0  0  0  0
    1.8601   -0.6922    1.6128 H   0  0  0  0  0  0  0  0  0  0  0  0
    1.8840    0.9063    0.8485 H   0  0  0  0  0  0  0  0  0  0  0  0
    0.1055   -2.3558    1.0797 H   0  0  0  0  0  0  0  0  0  0  0  0
   -2.2886   -2.7122    0.6466 H   0  0  0  0  0  0  0  0  0  0  0  0
   -3.6774   -0.8828   -0.2710 H   0  0  0  0  0  0  0  0  0  0  0  0
   -2.6828    1.3055   -0.7590 H   0  0  0  0  0  0  0  0  0  0  0  0
  1  2  1  0
  2  3  1  0
  3  4  2  0
  4  5  1  0
  5  6  2  0
  6  7  1  0
  7  8  2  0
  8  9  1  0
  9 10  1  0
  9 11  2  0
  9 12  2  0
  8  3  1  0
  1 13  1  0
  1 14  1  0
  1 15  1  0
  2 16  1  0
  2 17  1  0
  4 18  1  0
  5 19  1  0
  6 20  1  0
  7 21  1  0
M  RAD  1  10   3
M  END
$$$$
