
     RDKit          3D

 21 21  0  0  0  0  0  0  0  0999 V2000
   -2.4049    0.0373    0.8823 C   0  0  0  0  0  0  0  0  0  0  0  0
   -1.6468   -0.4292   -0.3576 C   0  0  0  0  0  0  0  0  0  0  0  0
   -0.2653    0.1845   -0.4090 C   0  0  0  0  0  0  0  0  0  0  0  0
   -0.1480    1.5008   -0.8929 C   0  0  0  0  0  0  0  0  0  0  0  0
    1.0930    2.1358   -0.9419 C   0  0  0  0  0  0  0  0  0  0  0  0
    2.2353    1.4693   -0.5049 C   0  0  0  0  0  0  0  0  0  0  0  0
    2.1409    0.1663   -0.0146 C   0  0  0  0  0  0  0  0  0  0  0  0
    0.8994   -0.4904    0.0477 C   0  0  0  0  0  0  0  0  0  0  0  0
    0.8545   -2.1510    0.6668 S   0  0  0  0  0  0  0  0  0  0  0  0
    0.4523   -3.2356   -0.6165 N   0  0  0  0  0  1  0  0  0  0  0  0
   -0.1628   -2.2661    1.7662 O   0  0  0  0  0  0  0  0  0  0  0  0
    2.1977   -2.5377    1.2196 O   0  0  0  0  0  0  0  0  0  0  0  0
   -3.4012   -0.4516    0.9151 H   0  0  0  0  0  0  0  0  0  0  0  0
   -1.8476   -0.2276    1.8049 H   0  0  0  0  0  0  0  0  0  0  0  0
   -2.5518    1.1381    0.8525 H   0  0  0  0  0  0  0  0  0  0  0  0
   -1.6098   -1.5358   -0.3747 H   0  0  0  0  0  0  0  0  0  0  0  0
   -2.2211   -0.1285   -1.2611 H   0  0  0  0  0  0  0  0  0  0  0  0
   -1.0246    2.0390   -1.2326 H   0  0  0  0  0  0  0  0  0  0  0  0
    1.1685    3.1476   -1.3188 H   0  0  0  0  0  0  0  0  0  0  0  0
    3.1975    1.9633   -0.5456 H   0  0  0  0  0  0  0  0  0  0  0  0
    3.0448   -0.3285    0.3152 H   0  0  0  0  0  0  0  0  0  0  0  0
  1  2  1  0
  2  3  1  0
  3  4  2  0
  4  5  1  0
  5  6  2  0
  6  7  1  0
  7  8  2  0
  8  9  1  0
  9 10  1  0
  9 11  2  0
  9 12  2  0
  8  3  1  0
  1 13  1  0
  1 14  1  0
  1 15  1  0
  2 16  1  0
  2 17  1  0
  4 18  1  0
  5 19  1  0
  6 20  1  0
  7 21  1  0
M  RAD  1  10   3
M  END
$$$$
