
     RDKit          3D

 21 21  0  0  0  0  0  0  0  0999 V2000
   -1.6870    1.9238    0.1287 C   0  0  0  0  0  0  0  0  0  0  0  0
   -1.0576    1.0211   -0.9290 C   0  0  0  0  0  0  0  0  0  0  0  0
    0.1634    0.3163   -0.3808 C   0  0  0  0  0  0  0  0  0  0  0  0
    1.3742    1.0325   -0.3422 C   0  0  0  0  0  0  0  0  0  0  0  0
    2.5316    0.4513    0.1757 C   0  0  0  0  0  0  0  0  0  0  0  0
    2.4980   -0.8515    0.6672 C   0  0  0  0  0  0  0  0  0  0  0  0
    1.3064   -1.5773    0.6454 C   0  0  0  0  0  0  0  0  0  0  0  0
    0.1275   -1.0090    0.1320 C   0  0  0  0  0  0  0  0  0  0  0  0
   -1.3469   -1.9932    0.1202 S   0  0  0  0  0  0  0  0  0  0  0  0
   -1.7779   -2.3690   -1.5101 N   0  0  0  0  0  1  0  0  0  0  0  0
   -1.1215   -3.2786    0.8661 O   0  0  0  0  0  0  0  0  0  0  0  0
   -2.4709   -1.2496    0.7838 O   0  0  0  0  0  0  0  0  0  0  0  0
   -1.9707    1.3363    1.0266 H   0  0  0  0  0  0  0  0  0  0  0  0
   -2.5985    2.4033   -0.2861 H   0  0  0  0  0  0  0  0  0  0  0  0
   -0.9736    2.7206    0.4290 H   0  0  0  0  0  0  0  0  0  0  0  0
   -0.7662    1.6444   -1.8025 H   0  0  0  0  0  0  0  0  0  0  0  0
   -1.8154    0.3061   -1.3044 H   0  0  0  0  0  0  0  0  0  0  0  0
    1.4208    2.0488   -0.7145 H   0  0  0  0  0  0  0  0  0  0  0  0
    3.4564    1.0133    0.1968 H   0  0  0  0  0  0  0  0  0  0  0  0
    3.3978   -1.3012    1.0670 H   0  0  0  0  0  0  0  0  0  0  0  0
    1.3100   -2.5882    1.0309 H   0  0  0  0  0  0  0  0  0  0  0  0
  1  2  1  0
  2  3  1  0
  3  4  2  0
  4  5  1  0
  5  6  2  0
  6  7  1  0
  7  8  2  0
  8  9  1  0
  9 10  1  0
  9 11  2  0
  9 12  2  0
  8  3  1  0
  1 13  1  0
  1 14  1  0
  1 15  1  0
  2 16  1  0
  2 17  1  0
  4 18  1  0
  5 19  1  0
  6 20  1  0
  7 21  1  0
M  RAD  1  10   3
M  END
$$$$
