
     RDKit          3D

 21 21  0  0  0  0  0  0  0  0999 V2000
   -2.1320   -1.2405    0.6925 C   0  0  0  0  0  0  0  0  0  0  0  0
   -1.2711   -1.0497   -0.5535 C   0  0  0  0  0  0  0  0  0  0  0  0
   -0.3292    0.1218   -0.3854 C   0  0  0  0  0  0  0  0  0  0  0  0
   -0.8420    1.4143   -0.6018 C   0  0  0  0  0  0  0  0  0  0  0  0
   -0.0345    2.5398   -0.4377 C   0  0  0  0  0  0  0  0  0  0  0  0
    1.2955    2.3936   -0.0509 C   0  0  0  0  0  0  0  0  0  0  0  0
    1.8226    1.1217    0.1761 C   0  0  0  0  0  0  0  0  0  0  0  0
    1.0250   -0.0255    0.0209 C   0  0  0  0  0  0  0  0  0  0  0  0
    1.7636   -1.6109    0.3100 S   0  0  0  0  0  0  0  0  0  0  0  0
    1.8788   -2.4756   -1.1813 N   0  0  0  0  0  1  0  0  0  0  0  0
    0.9378   -2.3957    1.2892 O   0  0  0  0  0  0  0  0  0  0  0  0
    3.1455   -1.4463    0.8780 O   0  0  0  0  0  0  0  0  0  0  0  0
   -1.4955   -1.4027    1.5871 H   0  0  0  0  0  0  0  0  0  0  0  0
   -2.7900   -2.1247    0.5581 H   0  0  0  0  0  0  0  0  0  0  0  0
   -2.7701   -0.3468    0.8603 H   0  0  0  0  0  0  0  0  0  0  0  0
   -1.9388   -0.8680   -1.4240 H   0  0  0  0  0  0  0  0  0  0  0  0
   -0.7288   -1.9891   -0.7766 H   0  0  0  0  0  0  0  0  0  0  0  0
   -1.8752    1.5506   -0.8979 H   0  0  0  0  0  0  0  0  0  0  0  0
   -0.4419    3.5277   -0.6099 H   0  0  0  0  0  0  0  0  0  0  0  0
    1.9208    3.2683    0.0741 H   0  0  0  0  0  0  0  0  0  0  0  0
    2.8597    1.0376    0.4727 H   0  0  0  0  0  0  0  0  0  0  0  0
  1  2  1  0
  2  3  1  0
  3  4  2  0
  4  5  1  0
  5  6  2  0
  6  7  1  0
  7  8  2  0
  8  9  1  0
  9 10  1  0
  9 11  2  0
  9 12  2  0
  8  3  1  0
  1 13  1  0
  1 14  1  0
  1 15  1  0
  2 16  1  0
  2 17  1  0
  4 18  1  0
  5 19  1  0
  6 20  1  0
  7 21  1  0
M  RAD  1  10   3
M  END
$$$$
