
     RDKit          3D

 21 21  0  0  0  0  0  0  0  0999 V2000
    2.4532    0.5392    0.5120 C   0  0  0  0  0  0  0  0  0  0  0  0
    1.4146    0.8345   -0.5672 C   0  0  0  0  0  0  0  0  0  0  0  0
    0.2325   -0.1027   -0.4517 C   0  0  0  0  0  0  0  0  0  0  0  0
    0.3801   -1.4094   -0.9534 C   0  0  0  0  0  0  0  0  0  0  0  0
   -0.6587   -2.3348   -0.8534 C   0  0  0  0  0  0  0  0  0  0  0  0
   -1.8595   -1.9725   -0.2482 C   0  0  0  0  0  0  0  0  0  0  0  0
   -2.0265   -0.6837    0.2595 C   0  0  0  0  0  0  0  0  0  0  0  0
   -0.9918    0.2642    0.1715 C   0  0  0  0  0  0  0  0  0  0  0  0
   -1.2821    1.8901    0.8167 S   0  0  0  0  0  0  0  0  0  0  0  0
   -0.0746    2.2946    1.9835 N   0  0  0  0  0  1  0  0  0  0  0  0
   -2.6262    1.9524    1.4869 O   0  0  0  0  0  0  0  0  0  0  0  0
   -1.2587    2.8890   -0.3057 O   0  0  0  0  0  0  0  0  0  0  0  0
    2.0022    0.6230    1.5226 H   0  0  0  0  0  0  0  0  0  0  0  0
    3.2890    1.2658    0.4329 H   0  0  0  0  0  0  0  0  0  0  0  0
    2.8626   -0.4854    0.3835 H   0  0  0  0  0  0  0  0  0  0  0  0
    1.8903    0.7084   -1.5644 H   0  0  0  0  0  0  0  0  0  0  0  0
    1.1129    1.8977   -0.5056 H   0  0  0  0  0  0  0  0  0  0  0  0
    1.3078   -1.7135   -1.4229 H   0  0  0  0  0  0  0  0  0  0  0  0
   -0.5310   -3.3358   -1.2448 H   0  0  0  0  0  0  0  0  0  0  0  0
   -2.6646   -2.6920   -0.1726 H   0  0  0  0  0  0  0  0  0  0  0  0
   -2.9715   -0.4292    0.7207 H   0  0  0  0  0  0  0  0  0  0  0  0
  1  2  1  0
  2  3  1  0
  3  4  2  0
  4  5  1  0
  5  6  2  0
  6  7  1  0
  7  8  2  0
  8  9  1  0
  9 10  1  0
  9 11  2  0
  9 12  2  0
  8  3  1  0
  1 13  1  0
  1 14  1  0
  1 15  1  0
  2 16  1  0
  2 17  1  0
  4 18  1  0
  5 19  1  0
  6 20  1  0
  7 21  1  0
M  RAD  1  10   3
M  END
$$$$
