
     RDKit          3D

 23 24  0  0  0  0  0  0  0  0999 V2000
   -1.0165   -1.4861   -1.9383 N   0  0  0  0  0  1  0  0  0  0  0  0
   -1.5969   -0.6181   -0.9689 C   0  0  0  0  0  0  0  0  0  0  0  0
   -2.9839   -0.4248   -0.9920 C   0  0  0  0  0  0  0  0  0  0  0  0
   -3.6011    0.3861   -0.0393 C   0  0  0  0  0  0  0  0  0  0  0  0
   -2.8363    1.0097    0.9453 C   0  0  0  0  0  0  0  0  0  0  0  0
   -1.4522    0.8249    0.9799 C   0  0  0  0  0  0  0  0  0  0  0  0
   -0.8085    0.0086    0.0268 C   0  0  0  0  0  0  0  0  0  0  0  0
    0.6727   -0.1497    0.0800 C   0  0  0  0  0  0  0  0  0  0  0  0
    1.3734   -0.1547    1.2043 C   0  0  0  0  0  0  0  0  0  0  0  0
    2.8338   -0.2445    0.9654 C   0  0  0  0  0  0  0  0  0  0  0  0
    2.9740   -0.0834   -0.5476 C   0  0  0  0  0  0  0  0  0  0  0  0
    1.5632   -0.2538   -1.1130 C   0  0  0  0  0  0  0  0  0  0  0  0
   -3.5873   -0.9102   -1.7491 H   0  0  0  0  0  0  0  0  0  0  0  0
   -4.6735    0.5306   -0.0641 H   0  0  0  0  0  0  0  0  0  0  0  0
   -3.3157    1.6425    1.6810 H   0  0  0  0  0  0  0  0  0  0  0  0
   -0.8829    1.3408    1.7426 H   0  0  0  0  0  0  0  0  0  0  0  0
    0.9371   -0.1190    2.1943 H   0  0  0  0  0  0  0  0  0  0  0  0
    3.2051   -1.2389    1.2941 H   0  0  0  0  0  0  0  0  0  0  0  0
    3.3684    0.5645    1.5077 H   0  0  0  0  0  0  0  0  0  0  0  0
    3.6723   -0.8391   -0.9689 H   0  0  0  0  0  0  0  0  0  0  0  0
    3.3534    0.9353   -0.7843 H   0  0  0  0  0  0  0  0  0  0  0  0
    1.4737   -1.2595   -1.5745 H   0  0  0  0  0  0  0  0  0  0  0  0
    1.3279    0.5388   -1.8558 H   0  0  0  0  0  0  0  0  0  0  0  0
  1  2  1  0
  2  3  2  0
  3  4  1  0
  4  5  2  0
  5  6  1  0
  6  7  2  0
  7  8  1  0
  8  9  2  0
  9 10  1  0
 10 11  1  0
 11 12  1  0
  7  2  1  0
 12  8  1  0
  3 13  1  0
  4 14  1  0
  5 15  1  0
  6 16  1  0
  9 17  1  0
 10 18  1  0
 10 19  1  0
 11 20  1  0
 11 21  1  0
 12 22  1  0
 12 23  1  0
M  RAD  1   1   3
M  END
$$$$
