
     RDKit          3D

 23 24  0  0  0  0  0  0  0  0999 V2000
    1.0319    2.3211   -0.7419 N   0  0  0  0  0  1  0  0  0  0  0  0
    1.6062    1.1028   -0.2773 C   0  0  0  0  0  0  0  0  0  0  0  0
    2.9962    1.0387   -0.1181 C   0  0  0  0  0  0  0  0  0  0  0  0
    3.6068   -0.1446    0.2980 C   0  0  0  0  0  0  0  0  0  0  0  0
    2.8322   -1.2742    0.5573 C   0  0  0  0  0  0  0  0  0  0  0  0
    1.4449   -1.2239    0.4021 C   0  0  0  0  0  0  0  0  0  0  0  0
    0.8079   -0.0379   -0.0184 C   0  0  0  0  0  0  0  0  0  0  0  0
   -0.6764   -0.0129   -0.1531 C   0  0  0  0  0  0  0  0  0  0  0  0
   -1.3996   -1.0559   -0.5330 C   0  0  0  0  0  0  0  0  0  0  0  0
   -2.8561   -0.7811   -0.5026 C   0  0  0  0  0  0  0  0  0  0  0  0
   -2.9633    0.5834    0.1768 C   0  0  0  0  0  0  0  0  0  0  0  0
   -1.5442    1.1537    0.1828 C   0  0  0  0  0  0  0  0  0  0  0  0
    3.6071    1.9092   -0.3234 H   0  0  0  0  0  0  0  0  0  0  0  0
    4.6816   -0.1860    0.4188 H   0  0  0  0  0  0  0  0  0  0  0  0
    3.3066   -2.1903    0.8849 H   0  0  0  0  0  0  0  0  0  0  0  0
    0.8686   -2.1106    0.6333 H   0  0  0  0  0  0  0  0  0  0  0  0
   -0.9828   -2.0024   -0.8527 H   0  0  0  0  0  0  0  0  0  0  0  0
   -3.2494   -0.7387   -1.5410 H   0  0  0  0  0  0  0  0  0  0  0  0
   -3.3888   -1.5635    0.0791 H   0  0  0  0  0  0  0  0  0  0  0  0
   -3.3219    0.4563    1.2222 H   0  0  0  0  0  0  0  0  0  0  0  0
   -3.6647    1.2504   -0.3704 H   0  0  0  0  0  0  0  0  0  0  0  0
   -1.2817    1.5715    1.1786 H   0  0  0  0  0  0  0  0  0  0  0  0
   -1.4612    1.9347   -0.6018 H   0  0  0  0  0  0  0  0  0  0  0  0
  1  2  1  0
  2  3  2  0
  3  4  1  0
  4  5  2  0
  5  6  1  0
  6  7  2  0
  7  8  1  0
  8  9  2  0
  9 10  1  0
 10 11  1  0
 11 12  1  0
  7  2  1  0
 12  8  1  0
  3 13  1  0
  4 14  1  0
  5 15  1  0
  6 16  1  0
  9 17  1  0
 10 18  1  0
 10 19  1  0
 11 20  1  0
 11 21  1  0
 12 22  1  0
 12 23  1  0
M  RAD  1   1   3
M  END
$$$$
