
     RDKit          3D

 23 24  0  0  0  0  0  0  0  0999 V2000
    0.8211   -0.1835    2.5731 N   0  0  0  0  0  1  0  0  0  0  0  0
    1.5055   -0.0091    1.3342 C   0  0  0  0  0  0  0  0  0  0  0  0
    2.9050    0.0365    1.3387 C   0  0  0  0  0  0  0  0  0  0  0  0
    3.6116    0.1426    0.1396 C   0  0  0  0  0  0  0  0  0  0  0  0
    2.9239    0.1954   -1.0730 C   0  0  0  0  0  0  0  0  0  0  0  0
    1.5275    0.1505   -1.0901 C   0  0  0  0  0  0  0  0  0  0  0  0
    0.7982    0.0615    0.1103 C   0  0  0  0  0  0  0  0  0  0  0  0
   -0.6856    0.0210    0.0571 C   0  0  0  0  0  0  0  0  0  0  0  0
   -1.4813    0.6714    0.8903 C   0  0  0  0  0  0  0  0  0  0  0  0
   -2.9165    0.4703    0.5770 C   0  0  0  0  0  0  0  0  0  0  0  0
   -2.9166   -0.5655   -0.5485 C   0  0  0  0  0  0  0  0  0  0  0  0
   -1.4586   -0.7023   -0.9913 C   0  0  0  0  0  0  0  0  0  0  0  0
    3.4477   -0.0215    2.2741 H   0  0  0  0  0  0  0  0  0  0  0  0
    4.6934    0.1759    0.1500 H   0  0  0  0  0  0  0  0  0  0  0  0
    3.4736    0.2729   -2.0022 H   0  0  0  0  0  0  0  0  0  0  0  0
    1.0193    0.2032   -2.0440 H   0  0  0  0  0  0  0  0  0  0  0  0
   -1.1329    1.3204    1.6832 H   0  0  0  0  0  0  0  0  0  0  0  0
   -3.4595    0.0946    1.4705 H   0  0  0  0  0  0  0  0  0  0  0  0
   -3.3612    1.4286    0.2326 H   0  0  0  0  0  0  0  0  0  0  0  0
   -3.2882   -1.5411   -0.1645 H   0  0  0  0  0  0  0  0  0  0  0  0
   -3.5620   -0.2377   -1.3925 H   0  0  0  0  0  0  0  0  0  0  0  0
   -1.1510   -1.7691   -1.0401 H   0  0  0  0  0  0  0  0  0  0  0  0
   -1.3135   -0.2149   -1.9791 H   0  0  0  0  0  0  0  0  0  0  0  0
  1  2  1  0
  2  3  2  0
  3  4  1  0
  4  5  2  0
  5  6  1  0
  6  7  2  0
  7  8  1  0
  8  9  2  0
  9 10  1  0
 10 11  1  0
 11 12  1  0
  7  2  1  0
 12  8  1  0
  3 13  1  0
  4 14  1  0
  5 15  1  0
  6 16  1  0
  9 17  1  0
 10 18  1  0
 10 19  1  0
 11 20  1  0
 11 21  1  0
 12 22  1  0
 12 23  1  0
M  RAD  1   1   3
M  END
$$$$
