
     RDKit          3D

 23 24  0  0  0  0  0  0  0  0999 V2000
   -0.9447    2.4534   -0.1575 N   0  0  0  0  0  1  0  0  0  0  0  0
   -1.5672    1.1821    0.0045 C   0  0  0  0  0  0  0  0  0  0  0  0
   -2.9656    1.1263    0.0590 C   0  0  0  0  0  0  0  0  0  0  0  0
   -3.6204   -0.0997    0.1787 C   0  0  0  0  0  0  0  0  0  0  0  0
   -2.8821   -1.2803    0.2437 C   0  0  0  0  0  0  0  0  0  0  0  0
   -1.4869   -1.2387    0.1900 C   0  0  0  0  0  0  0  0  0  0  0  0
   -0.8053   -0.0100    0.0683 C   0  0  0  0  0  0  0  0  0  0  0  0
    0.6849   -0.0002    0.0355 C   0  0  0  0  0  0  0  0  0  0  0  0
    1.4164   -0.9617   -0.5082 C   0  0  0  0  0  0  0  0  0  0  0  0
    2.8715   -0.7412   -0.3293 C   0  0  0  0  0  0  0  0  0  0  0  0
    2.9529    0.4484    0.6262 C   0  0  0  0  0  0  0  0  0  0  0  0
    1.5454    1.0456    0.6623 C   0  0  0  0  0  0  0  0  0  0  0  0
   -3.5480    2.0375    0.0026 H   0  0  0  0  0  0  0  0  0  0  0  0
   -4.7014   -0.1344    0.2203 H   0  0  0  0  0  0  0  0  0  0  0  0
   -3.3912   -2.2306    0.3415 H   0  0  0  0  0  0  0  0  0  0  0  0
   -0.9408   -2.1703    0.2661 H   0  0  0  0  0  0  0  0  0  0  0  0
    1.0081   -1.8085   -1.0447 H   0  0  0  0  0  0  0  0  0  0  0  0
    3.3519   -1.6425    0.1079 H   0  0  0  0  0  0  0  0  0  0  0  0
    3.3347   -0.4950   -1.3089 H   0  0  0  0  0  0  0  0  0  0  0  0
    3.6996    1.1942    0.2762 H   0  0  0  0  0  0  0  0  0  0  0  0
    3.2382    0.0964    1.6423 H   0  0  0  0  0  0  0  0  0  0  0  0
    1.2225    1.2544    1.7050 H   0  0  0  0  0  0  0  0  0  0  0  0
    1.5273    1.9748    0.0551 H   0  0  0  0  0  0  0  0  0  0  0  0
  1  2  1  0
  2  3  2  0
  3  4  1  0
  4  5  2  0
  5  6  1  0
  6  7  2  0
  7  8  1  0
  8  9  2  0
  9 10  1  0
 10 11  1  0
 11 12  1  0
  7  2  1  0
 12  8  1  0
  3 13  1  0
  4 14  1  0
  5 15  1  0
  6 16  1  0
  9 17  1  0
 10 18  1  0
 10 19  1  0
 11 20  1  0
 11 21  1  0
 12 22  1  0
 12 23  1  0
M  RAD  1   1   3
M  END
$$$$
