
     RDKit          3D

 23 24  0  0  0  0  0  0  0  0999 V2000
    0.8938    1.4415    2.0313 N   0  0  0  0  0  1  0  0  0  0  0  0
    1.5355    0.6077    1.0706 C   0  0  0  0  0  0  0  0  0  0  0  0
    2.9215    0.4289    1.1624 C   0  0  0  0  0  0  0  0  0  0  0  0
    3.5983   -0.3480    0.2219 C   0  0  0  0  0  0  0  0  0  0  0  0
    2.8946   -0.9517   -0.8190 C   0  0  0  0  0  0  0  0  0  0  0  0
    1.5121   -0.7811   -0.9224 C   0  0  0  0  0  0  0  0  0  0  0  0
    0.8088    0.0010    0.0173 C   0  0  0  0  0  0  0  0  0  0  0  0
   -0.6693    0.1446   -0.1105 C   0  0  0  0  0  0  0  0  0  0  0  0
   -1.3094    0.1738   -1.2701 C   0  0  0  0  0  0  0  0  0  0  0  0
   -2.7814    0.2409   -1.1070 C   0  0  0  0  0  0  0  0  0  0  0  0
   -2.9997    0.0355    0.3913 C   0  0  0  0  0  0  0  0  0  0  0  0
   -1.6231    0.2051    1.0357 C   0  0  0  0  0  0  0  0  0  0  0  0
    3.4779    0.8991    1.9638 H   0  0  0  0  0  0  0  0  0  0  0  0
    4.6696   -0.4815    0.2999 H   0  0  0  0  0  0  0  0  0  0  0  0
    3.4202   -1.5583   -1.5453 H   0  0  0  0  0  0  0  0  0  0  0  0
    0.9905   -1.2813   -1.7284 H   0  0  0  0  0  0  0  0  0  0  0  0
   -0.8209    0.1709   -2.2360 H   0  0  0  0  0  0  0  0  0  0  0  0
   -3.1470    1.2402   -1.4274 H   0  0  0  0  0  0  0  0  0  0  0  0
   -3.2765   -0.5581   -1.6993 H   0  0  0  0  0  0  0  0  0  0  0  0
   -3.3785   -0.9935    0.5791 H   0  0  0  0  0  0  0  0  0  0  0  0
   -3.7286    0.7715    0.7955 H   0  0  0  0  0  0  0  0  0  0  0  0
   -1.5706    1.1983    1.5290 H   0  0  0  0  0  0  0  0  0  0  0  0
   -1.4178   -0.6055    1.7677 H   0  0  0  0  0  0  0  0  0  0  0  0
  1  2  1  0
  2  3  2  0
  3  4  1  0
  4  5  2  0
  5  6  1  0
  6  7  2  0
  7  8  1  0
  8  9  2  0
  9 10  1  0
 10 11  1  0
 11 12  1  0
  7  2  1  0
 12  8  1  0
  3 13  1  0
  4 14  1  0
  5 15  1  0
  6 16  1  0
  9 17  1  0
 10 18  1  0
 10 19  1  0
 11 20  1  0
 11 21  1  0
 12 22  1  0
 12 23  1  0
M  RAD  1   1   3
M  END
$$$$
