
     RDKit          3D

 23 24  0  0  0  0  0  0  0  0999 V2000
   -0.1892   -0.7256    2.5795 N   0  0  0  0  0  1  0  0  0  0  0  0
   -1.1354   -0.2520    1.6235 C   0  0  0  0  0  0  0  0  0  0  0  0
   -2.4575   -0.0393    2.0331 C   0  0  0  0  0  0  0  0  0  0  0  0
   -3.3968    0.4834    1.1427 C   0  0  0  0  0  0  0  0  0  0  0  0
   -3.0187    0.8048   -0.1611 C   0  0  0  0  0  0  0  0  0  0  0  0
   -1.7024    0.5972   -0.5812 C   0  0  0  0  0  0  0  0  0  0  0  0
   -0.7464    0.0546    0.2977 C   0  0  0  0  0  0  0  0  0  0  0  0
    0.6430   -0.1582   -0.1823 C   0  0  0  0  0  0  0  0  0  0  0  0
    1.3746   -1.2249    0.0958 C   0  0  0  0  0  0  0  0  0  0  0  0
    2.7106   -1.1790   -0.5457 C   0  0  0  0  0  0  0  0  0  0  0  0
    2.7733    0.2064   -1.1910 C   0  0  0  0  0  0  0  0  0  0  0  0
    1.3560    0.7753   -1.0989 C   0  0  0  0  0  0  0  0  0  0  0  0
   -2.7557   -0.2696    3.0484 H   0  0  0  0  0  0  0  0  0  0  0  0
   -4.4167    0.6467    1.4660 H   0  0  0  0  0  0  0  0  0  0  0  0
   -3.7473    1.2144   -0.8488 H   0  0  0  0  0  0  0  0  0  0  0  0
   -1.4388    0.8460   -1.6008 H   0  0  0  0  0  0  0  0  0  0  0  0
    1.0274   -2.0652    0.6828 H   0  0  0  0  0  0  0  0  0  0  0  0
    3.5105   -1.3061    0.2148 H   0  0  0  0  0  0  0  0  0  0  0  0
    2.7826   -1.9773   -1.3154 H   0  0  0  0  0  0  0  0  0  0  0  0
    3.1096    0.1393   -2.2486 H   0  0  0  0  0  0  0  0  0  0  0  0
    3.4784    0.8551   -0.6258 H   0  0  0  0  0  0  0  0  0  0  0  0
    0.8772    0.7681   -2.1015 H   0  0  0  0  0  0  0  0  0  0  0  0
    1.3619    1.8058   -0.6830 H   0  0  0  0  0  0  0  0  0  0  0  0
  1  2  1  0
  2  3  2  0
  3  4  1  0
  4  5  2  0
  5  6  1  0
  6  7  2  0
  7  8  1  0
  8  9  2  0
  9 10  1  0
 10 11  1  0
 11 12  1  0
  7  2  1  0
 12  8  1  0
  3 13  1  0
  4 14  1  0
  5 15  1  0
  6 16  1  0
  9 17  1  0
 10 18  1  0
 10 19  1  0
 11 20  1  0
 11 21  1  0
 12 22  1  0
 12 23  1  0
M  RAD  1   1   3
M  END
$$$$
