
     RDKit          3D

 23 24  0  0  0  0  0  0  0  0999 V2000
   -0.7401   -2.5245    0.2865 N   0  0  0  0  0  1  0  0  0  0  0  0
   -1.4648   -1.3082    0.1276 C   0  0  0  0  0  0  0  0  0  0  0  0
   -2.8643   -1.3581    0.1474 C   0  0  0  0  0  0  0  0  0  0  0  0
   -3.6163   -0.1984   -0.0420 C   0  0  0  0  0  0  0  0  0  0  0  0
   -2.9747    1.0209   -0.2540 C   0  0  0  0  0  0  0  0  0  0  0  0
   -1.5795    1.0845   -0.2766 C   0  0  0  0  0  0  0  0  0  0  0  0
   -0.8006   -0.0761   -0.0881 C   0  0  0  0  0  0  0  0  0  0  0  0
    0.6861    0.0312   -0.0968 C   0  0  0  0  0  0  0  0  0  0  0  0
    1.3585    0.8919   -0.8466 C   0  0  0  0  0  0  0  0  0  0  0  0
    2.8195    0.8433   -0.5994 C   0  0  0  0  0  0  0  0  0  0  0  0
    2.9610   -0.0712    0.6164 C   0  0  0  0  0  0  0  0  0  0  0  0
    1.6038   -0.7579    0.7762 C   0  0  0  0  0  0  0  0  0  0  0  0
   -3.3719   -2.3017    0.3050 H   0  0  0  0  0  0  0  0  0  0  0  0
   -4.6975   -0.2453   -0.0251 H   0  0  0  0  0  0  0  0  0  0  0  0
   -3.5592    1.9208   -0.3960 H   0  0  0  0  0  0  0  0  0  0  0  0
   -1.1105    2.0495   -0.4204 H   0  0  0  0  0  0  0  0  0  0  0  0
    0.9038    1.5482   -1.5776 H   0  0  0  0  0  0  0  0  0  0  0  0
    3.2133    1.8601   -0.3864 H   0  0  0  0  0  0  0  0  0  0  0  0
    3.3332    0.4090   -1.4839 H   0  0  0  0  0  0  0  0  0  0  0  0
    3.7748   -0.8141    0.4676 H   0  0  0  0  0  0  0  0  0  0  0  0
    3.1835    0.5368    1.5211 H   0  0  0  0  0  0  0  0  0  0  0  0
    1.6785   -1.8038    0.4115 H   0  0  0  0  0  0  0  0  0  0  0  0
    1.2632   -0.7368    1.8339 H   0  0  0  0  0  0  0  0  0  0  0  0
  1  2  1  0
  2  3  2  0
  3  4  1  0
  4  5  2  0
  5  6  1  0
  6  7  2  0
  7  8  1  0
  8  9  2  0
  9 10  1  0
 10 11  1  0
 11 12  1  0
  7  2  1  0
 12  8  1  0
  3 13  1  0
  4 14  1  0
  5 15  1  0
  6 16  1  0
  9 17  1  0
 10 18  1  0
 10 19  1  0
 11 20  1  0
 11 21  1  0
 12 22  1  0
 12 23  1  0
M  RAD  1   1   3
M  END
$$$$
