
     RDKit          3D

 23 24  0  0  0  0  0  0  0  0999 V2000
   -0.7339   -2.4988   -0.4179 N   0  0  0  0  0  1  0  0  0  0  0  0
   -1.4636   -1.3125   -0.1112 C   0  0  0  0  0  0  0  0  0  0  0  0
   -2.8612   -1.3417   -0.1925 C   0  0  0  0  0  0  0  0  0  0  0  0
   -3.6059   -0.1841    0.0386 C   0  0  0  0  0  0  0  0  0  0  0  0
   -2.9580    1.0128    0.3444 C   0  0  0  0  0  0  0  0  0  0  0  0
   -1.5639    1.0544    0.4280 C   0  0  0  0  0  0  0  0  0  0  0  0
   -0.7979   -0.1070    0.2156 C   0  0  0  0  0  0  0  0  0  0  0  0
    0.6819   -0.0295    0.3171 C   0  0  0  0  0  0  0  0  0  0  0  0
    1.4403   -0.9462    0.8959 C   0  0  0  0  0  0  0  0  0  0  0  0
    2.8787   -0.5868    0.8763 C   0  0  0  0  0  0  0  0  0  0  0  0
    2.9384    0.6902    0.0364 C   0  0  0  0  0  0  0  0  0  0  0  0
    1.4863    1.1309   -0.1586 C   0  0  0  0  0  0  0  0  0  0  0  0
   -3.3717   -2.2624   -0.4464 H   0  0  0  0  0  0  0  0  0  0  0  0
   -4.6859   -0.2131   -0.0272 H   0  0  0  0  0  0  0  0  0  0  0  0
   -3.5369    1.9107    0.5187 H   0  0  0  0  0  0  0  0  0  0  0  0
   -1.0877    1.9938    0.6767 H   0  0  0  0  0  0  0  0  0  0  0  0
    1.0584   -1.8371    1.3771 H   0  0  0  0  0  0  0  0  0  0  0  0
    3.4758   -1.4017    0.4139 H   0  0  0  0  0  0  0  0  0  0  0  0
    3.2295   -0.3949    1.9131 H   0  0  0  0  0  0  0  0  0  0  0  0
    3.4030    0.4721   -0.9506 H   0  0  0  0  0  0  0  0  0  0  0  0
    3.5303    1.4787    0.5503 H   0  0  0  0  0  0  0  0  0  0  0  0
    1.2733    2.0259    0.4643 H   0  0  0  0  0  0  0  0  0  0  0  0
    1.2709    1.3462   -1.2274 H   0  0  0  0  0  0  0  0  0  0  0  0
  1  2  1  0
  2  3  2  0
  3  4  1  0
  4  5  2  0
  5  6  1  0
  6  7  2  0
  7  8  1  0
  8  9  2  0
  9 10  1  0
 10 11  1  0
 11 12  1  0
  7  2  1  0
 12  8  1  0
  3 13  1  0
  4 14  1  0
  5 15  1  0
  6 16  1  0
  9 17  1  0
 10 18  1  0
 10 19  1  0
 11 20  1  0
 11 21  1  0
 12 22  1  0
 12 23  1  0
M  RAD  1   1   3
M  END
$$$$
