
     RDKit          3D

 23 24  0  0  0  0  0  0  0  0999 V2000
    0.9942    1.7434    1.7856 N   0  0  0  0  0  1  0  0  0  0  0  0
    1.5932    0.8821    0.8198 C   0  0  0  0  0  0  0  0  0  0  0  0
    2.9903    0.8241    0.7439 C   0  0  0  0  0  0  0  0  0  0  0  0
    3.6130   -0.0537   -0.1449 C   0  0  0  0  0  0  0  0  0  0  0  0
    2.8432   -0.8855   -0.9583 C   0  0  0  0  0  0  0  0  0  0  0  0
    1.4485   -0.8368   -0.8914 C   0  0  0  0  0  0  0  0  0  0  0  0
    0.8035    0.0546   -0.0138 C   0  0  0  0  0  0  0  0  0  0  0  0
   -0.6809    0.0849    0.0290 C   0  0  0  0  0  0  0  0  0  0  0  0
   -1.4038    1.1900    0.1101 C   0  0  0  0  0  0  0  0  0  0  0  0
   -2.8610    0.9161    0.1019 C   0  0  0  0  0  0  0  0  0  0  0  0
   -2.9596   -0.6096    0.1448 C   0  0  0  0  0  0  0  0  0  0  0  0
   -1.5390   -1.1274   -0.0886 C   0  0  0  0  0  0  0  0  0  0  0  0
    3.5959    1.4536    1.3839 H   0  0  0  0  0  0  0  0  0  0  0  0
    4.6933   -0.0946   -0.1976 H   0  0  0  0  0  0  0  0  0  0  0  0
    3.3278   -1.5689   -1.6436 H   0  0  0  0  0  0  0  0  0  0  0  0
    0.8757   -1.4859   -1.5407 H   0  0  0  0  0  0  0  0  0  0  0  0
   -0.9886    2.1892    0.1297 H   0  0  0  0  0  0  0  0  0  0  0  0
   -3.3472    1.3766    0.9885 H   0  0  0  0  0  0  0  0  0  0  0  0
   -3.3105    1.3153   -0.8327 H   0  0  0  0  0  0  0  0  0  0  0  0
   -3.6562   -0.9867   -0.6355 H   0  0  0  0  0  0  0  0  0  0  0  0
   -3.3218   -0.9371    1.1443 H   0  0  0  0  0  0  0  0  0  0  0  0
   -1.2558   -1.8844    0.6742 H   0  0  0  0  0  0  0  0  0  0  0  0
   -1.4542   -1.5593   -1.1088 H   0  0  0  0  0  0  0  0  0  0  0  0
  1  2  1  0
  2  3  2  0
  3  4  1  0
  4  5  2  0
  5  6  1  0
  6  7  2  0
  7  8  1  0
  8  9  2  0
  9 10  1  0
 10 11  1  0
 11 12  1  0
  7  2  1  0
 12  8  1  0
  3 13  1  0
  4 14  1  0
  5 15  1  0
  6 16  1  0
  9 17  1  0
 10 18  1  0
 10 19  1  0
 11 20  1  0
 11 21  1  0
 12 22  1  0
 12 23  1  0
M  RAD  1   1   3
M  END
$$$$
