
     RDKit          3D

 34 36  0  0  0  0  0  0  0  0999 V2000
   -3.0445   -2.6243    0.8354 N   0  0  0  0  0  1  0  0  0  0  0  0
   -3.7055   -1.3968    0.5357 C   0  0  0  0  0  0  0  0  0  0  0  0
   -5.0907   -1.3997    0.3318 C   0  0  0  0  0  0  0  0  0  0  0  0
   -5.7593   -0.2130    0.0219 C   0  0  0  0  0  0  0  0  0  0  0  0
   -5.0464    0.9823   -0.0905 C   0  0  0  0  0  0  0  0  0  0  0  0
   -3.6637    0.9951    0.1115 C   0  0  0  0  0  0  0  0  0  0  0  0
   -2.9808   -0.1894    0.4389 C   0  0  0  0  0  0  0  0  0  0  0  0
   -1.4831   -0.1573    0.6201 C   0  0  0  0  0  0  0  0  0  0  0  0
   -0.7730   -0.4626   -0.7021 C   0  0  0  0  0  0  0  0  0  0  0  0
    0.7208   -0.4328   -0.5193 C   0  0  0  0  0  0  0  0  0  0  0  0
    1.4086   -1.5968   -0.1420 C   0  0  0  0  0  0  0  0  0  0  0  0
    2.7906   -1.5688    0.0619 C   0  0  0  0  0  0  0  0  0  0  0  0
    3.5033   -0.3721   -0.0985 C   0  0  0  0  0  0  0  0  0  0  0  0
    4.8916   -0.3326    0.1050 C   0  0  0  0  0  0  0  0  0  0  0  0
    5.5899    0.8680   -0.0535 C   0  0  0  0  0  0  0  0  0  0  0  0
    4.9105    2.0346   -0.4142 C   0  0  0  0  0  0  0  0  0  0  0  0
    3.5280    2.0090   -0.6197 C   0  0  0  0  0  0  0  0  0  0  0  0
    2.8148    0.8098   -0.4653 C   0  0  0  0  0  0  0  0  0  0  0  0
    1.4269    0.7716   -0.6682 C   0  0  0  0  0  0  0  0  0  0  0  0
   -5.6500   -2.3237    0.4095 H   0  0  0  0  0  0  0  0  0  0  0  0
   -6.8301   -0.2208   -0.1363 H   0  0  0  0  0  0  0  0  0  0  0  0
   -5.5651    1.8995   -0.3379 H   0  0  0  0  0  0  0  0  0  0  0  0
   -3.1243    1.9291    0.0112 H   0  0  0  0  0  0  0  0  0  0  0  0
   -1.1689    0.8448    0.9876 H   0  0  0  0  0  0  0  0  0  0  0  0
   -1.1760   -0.8942    1.3941 H   0  0  0  0  0  0  0  0  0  0  0  0
   -1.0861   -1.4625   -1.0758 H   0  0  0  0  0  0  0  0  0  0  0  0
   -1.0736    0.2846   -1.4697 H   0  0  0  0  0  0  0  0  0  0  0  0
    0.8724   -2.5277   -0.0039 H   0  0  0  0  0  0  0  0  0  0  0  0
    3.3008   -2.4808    0.3484 H   0  0  0  0  0  0  0  0  0  0  0  0
    5.4345   -1.2270    0.3863 H   0  0  0  0  0  0  0  0  0  0  0  0
    6.6603    0.8943    0.1044 H   0  0  0  0  0  0  0  0  0  0  0  0
    5.4567    2.9612   -0.5348 H   0  0  0  0  0  0  0  0  0  0  0  0
    3.0180    2.9233   -0.8989 H   0  0  0  0  0  0  0  0  0  0  0  0
    0.8934    1.6756   -0.9399 H   0  0  0  0  0  0  0  0  0  0  0  0
  1  2  1  0
  2  3  2  0
  3  4  1  0
  4  5  2  0
  5  6  1  0
  6  7  2  0
  7  8  1  0
  8  9  1  0
  9 10  1  0
 10 11  1  0
 11 12  2  0
 12 13  1  0
 13 14  2  0
 14 15  1  0
 15 16  2  0
 16 17  1  0
 17 18  2  0
 18 19  1  0
  7  2  1  0
 18 13  1  0
 19 10  2  0
  3 20  1  0
  4 21  1  0
  5 22  1  0
  6 23  1  0
  8 24  1  0
  8 25  1  0
  9 26  1  0
  9 27  1  0
 11 28  1  0
 12 29  1  0
 14 30  1  0
 15 31  1  0
 16 32  1  0
 17 33  1  0
 19 34  1  0
M  RAD  1   1   3
M  END
$$$$
