
     RDKit          3D

 34 36  0  0  0  0  0  0  0  0999 V2000
   -3.7734   -1.4162   -1.5557 N   0  0  0  0  0  1  0  0  0  0  0  0
   -3.2771   -0.3766   -0.7154 C   0  0  0  0  0  0  0  0  0  0  0  0
   -3.6605    0.9462   -0.9669 C   0  0  0  0  0  0  0  0  0  0  0  0
   -3.1774    1.9839   -0.1662 C   0  0  0  0  0  0  0  0  0  0  0  0
   -2.3084    1.7052    0.8903 C   0  0  0  0  0  0  0  0  0  0  0  0
   -1.9224    0.3880    1.1508 C   0  0  0  0  0  0  0  0  0  0  0  0
   -2.4053   -0.6668    0.3557 C   0  0  0  0  0  0  0  0  0  0  0  0
   -1.9285   -2.0771    0.6194 C   0  0  0  0  0  0  0  0  0  0  0  0
   -0.7703   -2.4724   -0.3082 C   0  0  0  0  0  0  0  0  0  0  0  0
    0.4474   -1.6137   -0.0774 C   0  0  0  0  0  0  0  0  0  0  0  0
    1.3195   -1.8987    0.9845 C   0  0  0  0  0  0  0  0  0  0  0  0
    2.4181   -1.0742    1.2403 C   0  0  0  0  0  0  0  0  0  0  0  0
    2.6536    0.0549    0.4430 C   0  0  0  0  0  0  0  0  0  0  0  0
    3.7491    0.8948    0.6965 C   0  0  0  0  0  0  0  0  0  0  0  0
    3.9681    2.0220   -0.1006 C   0  0  0  0  0  0  0  0  0  0  0  0
    3.0979    2.3192   -1.1530 C   0  0  0  0  0  0  0  0  0  0  0  0
    2.0035    1.4906   -1.4165 C   0  0  0  0  0  0  0  0  0  0  0  0
    1.7735    0.3544   -0.6250 C   0  0  0  0  0  0  0  0  0  0  0  0
    0.6771   -0.4828   -0.8780 C   0  0  0  0  0  0  0  0  0  0  0  0
   -4.3303    1.1717   -1.7873 H   0  0  0  0  0  0  0  0  0  0  0  0
   -3.4741    3.0052   -0.3671 H   0  0  0  0  0  0  0  0  0  0  0  0
   -1.9295    2.5111    1.5054 H   0  0  0  0  0  0  0  0  0  0  0  0
   -1.2359    0.1913    1.9652 H   0  0  0  0  0  0  0  0  0  0  0  0
   -2.7692   -2.7887    0.4721 H   0  0  0  0  0  0  0  0  0  0  0  0
   -1.6094   -2.1869    1.6794 H   0  0  0  0  0  0  0  0  0  0  0  0
   -0.5097   -3.5371   -0.1222 H   0  0  0  0  0  0  0  0  0  0  0  0
   -1.0965   -2.4057   -1.3692 H   0  0  0  0  0  0  0  0  0  0  0  0
    1.1429   -2.7577    1.6200 H   0  0  0  0  0  0  0  0  0  0  0  0
    3.0782   -1.3147    2.0651 H   0  0  0  0  0  0  0  0  0  0  0  0
    4.4328    0.6812    1.5096 H   0  0  0  0  0  0  0  0  0  0  0  0
    4.8137    2.6677    0.0985 H   0  0  0  0  0  0  0  0  0  0  0  0
    3.2719    3.1942   -1.7659 H   0  0  0  0  0  0  0  0  0  0  0  0
    1.3387    1.7371   -2.2358 H   0  0  0  0  0  0  0  0  0  0  0  0
   -0.0077   -0.2492   -1.6856 H   0  0  0  0  0  0  0  0  0  0  0  0
  1  2  1  0
  2  3  2  0
  3  4  1  0
  4  5  2  0
  5  6  1  0
  6  7  2  0
  7  8  1  0
  8  9  1  0
  9 10  1  0
 10 11  1  0
 11 12  2  0
 12 13  1  0
 13 14  2  0
 14 15  1  0
 15 16  2  0
 16 17  1  0
 17 18  2  0
 18 19  1  0
  7  2  1  0
 18 13  1  0
 19 10  2  0
  3 20  1  0
  4 21  1  0
  5 22  1  0
  6 23  1  0
  8 24  1  0
  8 25  1  0
  9 26  1  0
  9 27  1  0
 11 28  1  0
 12 29  1  0
 14 30  1  0
 15 31  1  0
 16 32  1  0
 17 33  1  0
 19 34  1  0
M  RAD  1   1   3
M  END
$$$$
