
     RDKit          3D

 34 36  0  0  0  0  0  0  0  0999 V2000
   -3.3861   -0.1527   -2.6375 N   0  0  0  0  0  1  0  0  0  0  0  0
   -3.0323    0.4202   -1.3805 C   0  0  0  0  0  0  0  0  0  0  0  0
   -3.2527    1.7862   -1.1666 C   0  0  0  0  0  0  0  0  0  0  0  0
   -2.9024    2.3738    0.0513 C   0  0  0  0  0  0  0  0  0  0  0  0
   -2.3298    1.5995    1.0620 C   0  0  0  0  0  0  0  0  0  0  0  0
   -2.1087    0.2351    0.8589 C   0  0  0  0  0  0  0  0  0  0  0  0
   -2.4613   -0.3704   -0.3606 C   0  0  0  0  0  0  0  0  0  0  0  0
   -2.1594   -1.8355   -0.5795 C   0  0  0  0  0  0  0  0  0  0  0  0
   -0.8446   -2.0404   -1.3461 C   0  0  0  0  0  0  0  0  0  0  0  0
    0.3402   -1.5235   -0.5698 C   0  0  0  0  0  0  0  0  0  0  0  0
    0.9140   -2.3060    0.4440 C   0  0  0  0  0  0  0  0  0  0  0  0
    1.9751   -1.8112    1.2065 C   0  0  0  0  0  0  0  0  0  0  0  0
    2.4703   -0.5205    0.9725 C   0  0  0  0  0  0  0  0  0  0  0  0
    3.5300   -0.0102    1.7385 C   0  0  0  0  0  0  0  0  0  0  0  0
    4.0090    1.2814    1.5007 C   0  0  0  0  0  0  0  0  0  0  0  0
    3.4356    2.0713    0.5006 C   0  0  0  0  0  0  0  0  0  0  0  0
    2.3802    1.5748   -0.2697 C   0  0  0  0  0  0  0  0  0  0  0  0
    1.8912    0.2788   -0.0427 C   0  0  0  0  0  0  0  0  0  0  0  0
    0.8307   -0.2290   -0.8072 C   0  0  0  0  0  0  0  0  0  0  0  0
   -3.6919    2.3949   -1.9470 H   0  0  0  0  0  0  0  0  0  0  0  0
   -3.0716    3.4310    0.2103 H   0  0  0  0  0  0  0  0  0  0  0  0
   -2.0526    2.0578    2.0025 H   0  0  0  0  0  0  0  0  0  0  0  0
   -1.6499   -0.3476    1.6483 H   0  0  0  0  0  0  0  0  0  0  0  0
   -2.9884   -2.3059   -1.1508 H   0  0  0  0  0  0  0  0  0  0  0  0
   -2.1088   -2.3709    0.3943 H   0  0  0  0  0  0  0  0  0  0  0  0
   -0.9047   -1.5431   -2.3388 H   0  0  0  0  0  0  0  0  0  0  0  0
   -0.7098   -3.1264   -1.5423 H   0  0  0  0  0  0  0  0  0  0  0  0
    0.5329   -3.2990    0.6486 H   0  0  0  0  0  0  0  0  0  0  0  0
    2.4028   -2.4340    1.9833 H   0  0  0  0  0  0  0  0  0  0  0  0
    3.9851   -0.6076    2.5195 H   0  0  0  0  0  0  0  0  0  0  0  0
    4.8259    1.6715    2.0940 H   0  0  0  0  0  0  0  0  0  0  0  0
    3.8100    3.0710    0.3222 H   0  0  0  0  0  0  0  0  0  0  0  0
    1.9471    2.2018   -1.0401 H   0  0  0  0  0  0  0  0  0  0  0  0
    0.3746    0.3849   -1.5758 H   0  0  0  0  0  0  0  0  0  0  0  0
  1  2  1  0
  2  3  2  0
  3  4  1  0
  4  5  2  0
  5  6  1  0
  6  7  2  0
  7  8  1  0
  8  9  1  0
  9 10  1  0
 10 11  1  0
 11 12  2  0
 12 13  1  0
 13 14  2  0
 14 15  1  0
 15 16  2  0
 16 17  1  0
 17 18  2  0
 18 19  1  0
  7  2  1  0
 18 13  1  0
 19 10  2  0
  3 20  1  0
  4 21  1  0
  5 22  1  0
  6 23  1  0
  8 24  1  0
  8 25  1  0
  9 26  1  0
  9 27  1  0
 11 28  1  0
 12 29  1  0
 14 30  1  0
 15 31  1  0
 16 32  1  0
 17 33  1  0
 19 34  1  0
M  RAD  1   1   3
M  END
$$$$
