
     RDKit          3D

 34 36  0  0  0  0  0  0  0  0999 V2000
    3.5905   -1.0185   -1.9459 N   0  0  0  0  0  1  0  0  0  0  0  0
    3.1933   -0.2054   -0.8439 C   0  0  0  0  0  0  0  0  0  0  0  0
    3.5845    1.1385   -0.8109 C   0  0  0  0  0  0  0  0  0  0  0  0
    3.1970    1.9590    0.2510 C   0  0  0  0  0  0  0  0  0  0  0  0
    2.4162    1.4410    1.2859 C   0  0  0  0  0  0  0  0  0  0  0  0
    2.0232    0.1005    1.2633 C   0  0  0  0  0  0  0  0  0  0  0  0
    2.4106   -0.7380    0.2027 C   0  0  0  0  0  0  0  0  0  0  0  0
    1.9253   -2.1695    0.1693 C   0  0  0  0  0  0  0  0  0  0  0  0
    0.6823   -2.3318   -0.7177 C   0  0  0  0  0  0  0  0  0  0  0  0
   -0.4903   -1.5487   -0.1836 C   0  0  0  0  0  0  0  0  0  0  0  0
   -1.2739   -2.0741    0.8554 C   0  0  0  0  0  0  0  0  0  0  0  0
   -2.3265   -1.3305    1.3949 C   0  0  0  0  0  0  0  0  0  0  0  0
   -2.6033   -0.0446    0.9095 C   0  0  0  0  0  0  0  0  0  0  0  0
   -3.6528    0.7146    1.4503 C   0  0  0  0  0  0  0  0  0  0  0  0
   -3.9131    1.9987    0.9631 C   0  0  0  0  0  0  0  0  0  0  0  0
   -3.1303    2.5337   -0.0635 C   0  0  0  0  0  0  0  0  0  0  0  0
   -2.0826    1.7879   -0.6112 C   0  0  0  0  0  0  0  0  0  0  0  0
   -1.8120    0.4964   -0.1327 C   0  0  0  0  0  0  0  0  0  0  0  0
   -0.7616   -0.2602   -0.6723 C   0  0  0  0  0  0  0  0  0  0  0  0
    4.1861    1.5495   -1.6120 H   0  0  0  0  0  0  0  0  0  0  0  0
    3.4992    2.9981    0.2699 H   0  0  0  0  0  0  0  0  0  0  0  0
    2.1109    2.0799    2.1045 H   0  0  0  0  0  0  0  0  0  0  0  0
    1.4051   -0.2811    2.0667 H   0  0  0  0  0  0  0  0  0  0  0  0
    1.6964   -2.5256    1.1981 H   0  0  0  0  0  0  0  0  0  0  0  0
    2.7331   -2.8284   -0.2157 H   0  0  0  0  0  0  0  0  0  0  0  0
    0.4138   -3.4096   -0.7644 H   0  0  0  0  0  0  0  0  0  0  0  0
    0.9171   -2.0173   -1.7581 H   0  0  0  0  0  0  0  0  0  0  0  0
   -1.0634   -3.0593    1.2529 H   0  0  0  0  0  0  0  0  0  0  0  0
   -2.9184   -1.7573    2.1959 H   0  0  0  0  0  0  0  0  0  0  0  0
   -4.2684    0.3168    2.2483 H   0  0  0  0  0  0  0  0  0  0  0  0
   -4.7228    2.5812    1.3832 H   0  0  0  0  0  0  0  0  0  0  0  0
   -3.3359    3.5291   -0.4356 H   0  0  0  0  0  0  0  0  0  0  0  0
   -1.4855    2.2192   -1.4059 H   0  0  0  0  0  0  0  0  0  0  0  0
   -0.1438    0.1557   -1.4604 H   0  0  0  0  0  0  0  0  0  0  0  0
  1  2  1  0
  2  3  2  0
  3  4  1  0
  4  5  2  0
  5  6  1  0
  6  7  2  0
  7  8  1  0
  8  9  1  0
  9 10  1  0
 10 11  1  0
 11 12  2  0
 12 13  1  0
 13 14  2  0
 14 15  1  0
 15 16  2  0
 16 17  1  0
 17 18  2  0
 18 19  1  0
  7  2  1  0
 18 13  1  0
 19 10  2  0
  3 20  1  0
  4 21  1  0
  5 22  1  0
  6 23  1  0
  8 24  1  0
  8 25  1  0
  9 26  1  0
  9 27  1  0
 11 28  1  0
 12 29  1  0
 14 30  1  0
 15 31  1  0
 16 32  1  0
 17 33  1  0
 19 34  1  0
M  RAD  1   1   3
M  END
$$$$
