
     RDKit          3D

 34 36  0  0  0  0  0  0  0  0999 V2000
   -3.3030    2.4484    0.4244 N   0  0  0  0  0  1  0  0  0  0  0  0
   -3.8400    1.1333    0.2987 C   0  0  0  0  0  0  0  0  0  0  0  0
   -5.1977    0.9219    0.5678 C   0  0  0  0  0  0  0  0  0  0  0  0
   -5.7443   -0.3596    0.4668 C   0  0  0  0  0  0  0  0  0  0  0  0
   -4.9360   -1.4376    0.1009 C   0  0  0  0  0  0  0  0  0  0  0  0
   -3.5798   -1.2365   -0.1698 C   0  0  0  0  0  0  0  0  0  0  0  0
   -3.0203    0.0507   -0.0866 C   0  0  0  0  0  0  0  0  0  0  0  0
   -1.5467    0.2385   -0.3514 C   0  0  0  0  0  0  0  0  0  0  0  0
   -0.7465    0.1280    0.9499 C   0  0  0  0  0  0  0  0  0  0  0  0
    0.7230    0.3184    0.6847 C   0  0  0  0  0  0  0  0  0  0  0  0
    1.2841    1.6048    0.7136 C   0  0  0  0  0  0  0  0  0  0  0  0
    2.6404    1.7928    0.4358 C   0  0  0  0  0  0  0  0  0  0  0  0
    3.4533    0.6965    0.1143 C   0  0  0  0  0  0  0  0  0  0  0  0
    4.8168    0.8743   -0.1676 C   0  0  0  0  0  0  0  0  0  0  0  0
    5.6155   -0.2262   -0.4915 C   0  0  0  0  0  0  0  0  0  0  0  0
    5.0615   -1.5083   -0.5372 C   0  0  0  0  0  0  0  0  0  0  0  0
    3.7049   -1.6991   -0.2588 C   0  0  0  0  0  0  0  0  0  0  0  0
    2.8919   -0.6028    0.0692 C   0  0  0  0  0  0  0  0  0  0  0  0
    1.5289   -0.7816    0.3501 C   0  0  0  0  0  0  0  0  0  0  0  0
   -5.8299    1.7512    0.8596 H   0  0  0  0  0  0  0  0  0  0  0  0
   -6.7942   -0.5180    0.6773 H   0  0  0  0  0  0  0  0  0  0  0  0
   -5.3597   -2.4311    0.0303 H   0  0  0  0  0  0  0  0  0  0  0  0
   -2.9646   -2.0850   -0.4430 H   0  0  0  0  0  0  0  0  0  0  0  0
   -1.1917   -0.5314   -1.0721 H   0  0  0  0  0  0  0  0  0  0  0  0
   -1.3666    1.2286   -0.8242 H   0  0  0  0  0  0  0  0  0  0  0  0
   -0.9197   -0.8688    1.4125 H   0  0  0  0  0  0  0  0  0  0  0  0
   -1.0997    0.8936    1.6755 H   0  0  0  0  0  0  0  0  0  0  0  0
    0.6686    2.4640    0.9503 H   0  0  0  0  0  0  0  0  0  0  0  0
    3.0524    2.7945    0.4685 H   0  0  0  0  0  0  0  0  0  0  0  0
    5.2631    1.8613   -0.1382 H   0  0  0  0  0  0  0  0  0  0  0  0
    6.6665   -0.0849   -0.7083 H   0  0  0  0  0  0  0  0  0  0  0  0
    5.6850   -2.3564   -0.7892 H   0  0  0  0  0  0  0  0  0  0  0  0
    3.2928   -2.7004   -0.2992 H   0  0  0  0  0  0  0  0  0  0  0  0
    1.0918   -1.7730    0.3077 H   0  0  0  0  0  0  0  0  0  0  0  0
  1  2  1  0
  2  3  2  0
  3  4  1  0
  4  5  2  0
  5  6  1  0
  6  7  2  0
  7  8  1  0
  8  9  1  0
  9 10  1  0
 10 11  1  0
 11 12  2  0
 12 13  1  0
 13 14  2  0
 14 15  1  0
 15 16  2  0
 16 17  1  0
 17 18  2  0
 18 19  1  0
  7  2  1  0
 18 13  1  0
 19 10  2  0
  3 20  1  0
  4 21  1  0
  5 22  1  0
  6 23  1  0
  8 24  1  0
  8 25  1  0
  9 26  1  0
  9 27  1  0
 11 28  1  0
 12 29  1  0
 14 30  1  0
 15 31  1  0
 16 32  1  0
 17 33  1  0
 19 34  1  0
M  RAD  1   1   3
M  END
$$$$
