
     RDKit          3D

 34 36  0  0  0  0  0  0  0  0999 V2000
   -3.6408   -2.3182    0.2896 N   0  0  0  0  0  1  0  0  0  0  0  0
   -3.2126   -1.0157   -0.1022 C   0  0  0  0  0  0  0  0  0  0  0  0
   -3.5801   -0.5261   -1.3614 C   0  0  0  0  0  0  0  0  0  0  0  0
   -3.1621    0.7414   -1.7737 C   0  0  0  0  0  0  0  0  0  0  0  0
   -2.3744    1.5265   -0.9299 C   0  0  0  0  0  0  0  0  0  0  0  0
   -2.0049    1.0478    0.3295 C   0  0  0  0  0  0  0  0  0  0  0  0
   -2.4231   -0.2244    0.7593 C   0  0  0  0  0  0  0  0  0  0  0  0
   -1.9631   -0.7456    2.1018 C   0  0  0  0  0  0  0  0  0  0  0  0
   -0.7370   -1.6608    1.9708 C   0  0  0  0  0  0  0  0  0  0  0  0
    0.4571   -0.9192    1.4254 C   0  0  0  0  0  0  0  0  0  0  0  0
    1.2475   -0.1326    2.2776 C   0  0  0  0  0  0  0  0  0  0  0  0
    2.3210    0.6035    1.7698 C   0  0  0  0  0  0  0  0  0  0  0  0
    2.6124    0.5718    0.3986 C   0  0  0  0  0  0  0  0  0  0  0  0
    3.6830    1.3144   -0.1234 C   0  0  0  0  0  0  0  0  0  0  0  0
    3.9578    1.2807   -1.4936 C   0  0  0  0  0  0  0  0  0  0  0  0
    3.1686    0.5090   -2.3507 C   0  0  0  0  0  0  0  0  0  0  0  0
    2.0999   -0.2356   -1.8435 C   0  0  0  0  0  0  0  0  0  0  0  0
    1.8145   -0.2124   -0.4694 C   0  0  0  0  0  0  0  0  0  0  0  0
    0.7430   -0.9529    0.0507 C   0  0  0  0  0  0  0  0  0  0  0  0
   -4.1869   -1.1305   -2.0239 H   0  0  0  0  0  0  0  0  0  0  0  0
   -3.4461    1.1137   -2.7495 H   0  0  0  0  0  0  0  0  0  0  0  0
   -2.0455    2.5056   -1.2537 H   0  0  0  0  0  0  0  0  0  0  0  0
   -1.3811    1.6640    0.9654 H   0  0  0  0  0  0  0  0  0  0  0  0
   -2.7880   -1.3127    2.5844 H   0  0  0  0  0  0  0  0  0  0  0  0
   -1.7245    0.0993    2.7849 H   0  0  0  0  0  0  0  0  0  0  0  0
   -0.4878   -2.0717    2.9734 H   0  0  0  0  0  0  0  0  0  0  0  0
   -0.9824   -2.5306    1.3229 H   0  0  0  0  0  0  0  0  0  0  0  0
    1.0262   -0.0842    3.3366 H   0  0  0  0  0  0  0  0  0  0  0  0
    2.9178    1.2028    2.4471 H   0  0  0  0  0  0  0  0  0  0  0  0
    4.3039    1.9201    0.5259 H   0  0  0  0  0  0  0  0  0  0  0  0
    4.7838    1.8553   -1.8924 H   0  0  0  0  0  0  0  0  0  0  0  0
    3.3856    0.4881   -3.4108 H   0  0  0  0  0  0  0  0  0  0  0  0
    1.4981   -0.8274   -2.5230 H   0  0  0  0  0  0  0  0  0  0  0  0
    0.1204   -1.5432   -0.6124 H   0  0  0  0  0  0  0  0  0  0  0  0
  1  2  1  0
  2  3  2  0
  3  4  1  0
  4  5  2  0
  5  6  1  0
  6  7  2  0
  7  8  1  0
  8  9  1  0
  9 10  1  0
 10 11  1  0
 11 12  2  0
 12 13  1  0
 13 14  2  0
 14 15  1  0
 15 16  2  0
 16 17  1  0
 17 18  2  0
 18 19  1  0
  7  2  1  0
 18 13  1  0
 19 10  2  0
  3 20  1  0
  4 21  1  0
  5 22  1  0
  6 23  1  0
  8 24  1  0
  8 25  1  0
  9 26  1  0
  9 27  1  0
 11 28  1  0
 12 29  1  0
 14 30  1  0
 15 31  1  0
 16 32  1  0
 17 33  1  0
 19 34  1  0
M  RAD  1   1   3
M  END
$$$$
