
     RDKit          3D

 34 36  0  0  0  0  0  0  0  0999 V2000
   -3.3664   -2.3718    0.2040 N   0  0  0  0  0  1  0  0  0  0  0  0
   -3.8687   -1.0397    0.1208 C   0  0  0  0  0  0  0  0  0  0  0  0
   -5.2234   -0.8034    0.3839 C   0  0  0  0  0  0  0  0  0  0  0  0
   -5.7365    0.4945    0.3240 C   0  0  0  0  0  0  0  0  0  0  0  0
   -4.8973    1.5639    0.0054 C   0  0  0  0  0  0  0  0  0  0  0  0
   -3.5438    1.3380   -0.2591 C   0  0  0  0  0  0  0  0  0  0  0  0
   -3.0179    0.0348   -0.2171 C   0  0  0  0  0  0  0  0  0  0  0  0
   -1.5467   -0.1810   -0.4740 C   0  0  0  0  0  0  0  0  0  0  0  0
   -0.7579   -0.1379    0.8382 C   0  0  0  0  0  0  0  0  0  0  0  0
    0.7090   -0.3558    0.5808 C   0  0  0  0  0  0  0  0  0  0  0  0
    1.2375   -1.6562    0.5687 C   0  0  0  0  0  0  0  0  0  0  0  0
    2.5917   -1.8684    0.2975 C   0  0  0  0  0  0  0  0  0  0  0  0
    3.4350   -0.7823    0.0238 C   0  0  0  0  0  0  0  0  0  0  0  0
    4.7966   -0.9844   -0.2510 C   0  0  0  0  0  0  0  0  0  0  0  0
    5.6259    0.1065   -0.5271 C   0  0  0  0  0  0  0  0  0  0  0  0
    5.1046    1.4031   -0.5319 C   0  0  0  0  0  0  0  0  0  0  0  0
    3.7504    1.6181   -0.2601 C   0  0  0  0  0  0  0  0  0  0  0  0
    2.9067    0.5316    0.0202 C   0  0  0  0  0  0  0  0  0  0  0  0
    1.5457    0.7347    0.2940 C   0  0  0  0  0  0  0  0  0  0  0  0
   -5.8794   -1.6262    0.6393 H   0  0  0  0  0  0  0  0  0  0  0  0
   -6.7842    0.6720    0.5298 H   0  0  0  0  0  0  0  0  0  0  0  0
   -5.2950    2.5698   -0.0334 H   0  0  0  0  0  0  0  0  0  0  0  0
   -2.9045    2.1798   -0.4954 H   0  0  0  0  0  0  0  0  0  0  0  0
   -1.1647    0.6048   -1.1628 H   0  0  0  0  0  0  0  0  0  0  0  0
   -1.3865   -1.1578   -0.9805 H   0  0  0  0  0  0  0  0  0  0  0  0
   -0.9112    0.8458    1.3350 H   0  0  0  0  0  0  0  0  0  0  0  0
   -1.1380   -0.9199    1.5321 H   0  0  0  0  0  0  0  0  0  0  0  0
    0.5983   -2.5075    0.7681 H   0  0  0  0  0  0  0  0  0  0  0  0
    2.9781   -2.8807    0.2981 H   0  0  0  0  0  0  0  0  0  0  0  0
    5.2177   -1.9827   -0.2530 H   0  0  0  0  0  0  0  0  0  0  0  0
    6.6753   -0.0535   -0.7386 H   0  0  0  0  0  0  0  0  0  0  0  0
    5.7517    2.2436   -0.7470 H   0  0  0  0  0  0  0  0  0  0  0  0
    3.3637    2.6303   -0.2683 H   0  0  0  0  0  0  0  0  0  0  0  0
    1.1340    1.7378    0.2832 H   0  0  0  0  0  0  0  0  0  0  0  0
  1  2  1  0
  2  3  2  0
  3  4  1  0
  4  5  2  0
  5  6  1  0
  6  7  2  0
  7  8  1  0
  8  9  1  0
  9 10  1  0
 10 11  1  0
 11 12  2  0
 12 13  1  0
 13 14  2  0
 14 15  1  0
 15 16  2  0
 16 17  1  0
 17 18  2  0
 18 19  1  0
  7  2  1  0
 18 13  1  0
 19 10  2  0
  3 20  1  0
  4 21  1  0
  5 22  1  0
  6 23  1  0
  8 24  1  0
  8 25  1  0
  9 26  1  0
  9 27  1  0
 11 28  1  0
 12 29  1  0
 14 30  1  0
 15 31  1  0
 16 32  1  0
 17 33  1  0
 19 34  1  0
M  RAD  1   1   3
M  END
$$$$
