
     RDKit          3D

 34 36  0  0  0  0  0  0  0  0999 V2000
   -1.3041    0.7105   -1.9300 N   0  0  0  0  0  1  0  0  0  0  0  0
   -2.0658    0.6800   -0.7249 C   0  0  0  0  0  0  0  0  0  0  0  0
   -2.4198    1.8889   -0.1139 C   0  0  0  0  0  0  0  0  0  0  0  0
   -3.1534    1.8894    1.0745 C   0  0  0  0  0  0  0  0  0  0  0  0
   -3.5357    0.6815    1.6605 C   0  0  0  0  0  0  0  0  0  0  0  0
   -3.1859   -0.5304    1.0596 C   0  0  0  0  0  0  0  0  0  0  0  0
   -2.4538   -0.5462   -0.1405 C   0  0  0  0  0  0  0  0  0  0  0  0
   -2.0440   -1.8740   -0.7374 C   0  0  0  0  0  0  0  0  0  0  0  0
   -0.8151   -2.4633   -0.0300 C   0  0  0  0  0  0  0  0  0  0  0  0
    0.4060   -1.5996   -0.2179 C   0  0  0  0  0  0  0  0  0  0  0  0
    1.1710   -1.7065   -1.3896 C   0  0  0  0  0  0  0  0  0  0  0  0
    2.2705   -0.8697   -1.5970 C   0  0  0  0  0  0  0  0  0  0  0  0
    2.6141    0.0943   -0.6385 C   0  0  0  0  0  0  0  0  0  0  0  0
    3.7110    0.9463   -0.8409 C   0  0  0  0  0  0  0  0  0  0  0  0
    4.0380    1.9087    0.1187 C   0  0  0  0  0  0  0  0  0  0  0  0
    3.2751    2.0286    1.2834 C   0  0  0  0  0  0  0  0  0  0  0  0
    2.1806    1.1859    1.4974 C   0  0  0  0  0  0  0  0  0  0  0  0
    1.8427    0.2139    0.5429 C   0  0  0  0  0  0  0  0  0  0  0  0
    0.7448   -0.6350    0.7451 C   0  0  0  0  0  0  0  0  0  0  0  0
   -2.1225    2.8303   -0.5587 H   0  0  0  0  0  0  0  0  0  0  0  0
   -3.4229    2.8270    1.5433 H   0  0  0  0  0  0  0  0  0  0  0  0
   -4.0997    0.6838    2.5842 H   0  0  0  0  0  0  0  0  0  0  0  0
   -3.4799   -1.4591    1.5332 H   0  0  0  0  0  0  0  0  0  0  0  0
   -2.8874   -2.5917   -0.6386 H   0  0  0  0  0  0  0  0  0  0  0  0
   -1.8432   -1.7809   -1.8264 H   0  0  0  0  0  0  0  0  0  0  0  0
   -0.6161   -3.4766   -0.4419 H   0  0  0  0  0  0  0  0  0  0  0  0
   -1.0322   -2.5975    1.0527 H   0  0  0  0  0  0  0  0  0  0  0  0
    0.9093   -2.4343   -2.1477 H   0  0  0  0  0  0  0  0  0  0  0  0
    2.8466   -0.9707   -2.5091 H   0  0  0  0  0  0  0  0  0  0  0  0
    4.3123    0.8692   -1.7390 H   0  0  0  0  0  0  0  0  0  0  0  0
    4.8843    2.5643   -0.0413 H   0  0  0  0  0  0  0  0  0  0  0  0
    3.5325    2.7767    2.0220 H   0  0  0  0  0  0  0  0  0  0  0  0
    1.5997    1.2939    2.4057 H   0  0  0  0  0  0  0  0  0  0  0  0
    0.1428   -0.5376    1.6416 H   0  0  0  0  0  0  0  0  0  0  0  0
  1  2  1  0
  2  3  2  0
  3  4  1  0
  4  5  2  0
  5  6  1  0
  6  7  2  0
  7  8  1  0
  8  9  1  0
  9 10  1  0
 10 11  1  0
 11 12  2  0
 12 13  1  0
 13 14  2  0
 14 15  1  0
 15 16  2  0
 16 17  1  0
 17 18  2  0
 18 19  1  0
  7  2  1  0
 18 13  1  0
 19 10  2  0
  3 20  1  0
  4 21  1  0
  5 22  1  0
  6 23  1  0
  8 24  1  0
  8 25  1  0
  9 26  1  0
  9 27  1  0
 11 28  1  0
 12 29  1  0
 14 30  1  0
 15 31  1  0
 16 32  1  0
 17 33  1  0
 19 34  1  0
M  RAD  1   1   3
M  END
$$$$
