
     RDKit          3D

 34 36  0  0  0  0  0  0  0  0999 V2000
    2.7972    2.2878    2.0161 N   0  0  0  0  0  1  0  0  0  0  0  0
    3.5645    1.4391    1.1648 C   0  0  0  0  0  0  0  0  0  0  0  0
    4.9469    1.3416    1.3647 C   0  0  0  0  0  0  0  0  0  0  0  0
    5.7184    0.5055    0.5541 C   0  0  0  0  0  0  0  0  0  0  0  0
    5.1117   -0.2413   -0.4577 C   0  0  0  0  0  0  0  0  0  0  0  0
    3.7327   -0.1505   -0.6650 C   0  0  0  0  0  0  0  0  0  0  0  0
    2.9470    0.6987    0.1338 C   0  0  0  0  0  0  0  0  0  0  0  0
    1.4553    0.7557   -0.0869 C   0  0  0  0  0  0  0  0  0  0  0  0
    0.7385   -0.2609    0.8067 C   0  0  0  0  0  0  0  0  0  0  0  0
   -0.7494   -0.2012    0.5874 C   0  0  0  0  0  0  0  0  0  0  0  0
   -1.5389    0.6800    1.3426 C   0  0  0  0  0  0  0  0  0  0  0  0
   -2.9160    0.7649    1.1215 C   0  0  0  0  0  0  0  0  0  0  0  0
   -3.5217   -0.0239    0.1331 C   0  0  0  0  0  0  0  0  0  0  0  0
   -4.9039    0.0543   -0.0981 C   0  0  0  0  0  0  0  0  0  0  0  0
   -5.4950   -0.7339   -1.0897 C   0  0  0  0  0  0  0  0  0  0  0  0
   -4.7139   -1.6028   -1.8563 C   0  0  0  0  0  0  0  0  0  0  0  0
   -3.3362   -1.6901   -1.6364 C   0  0  0  0  0  0  0  0  0  0  0  0
   -2.7300   -0.9052   -0.6428 C   0  0  0  0  0  0  0  0  0  0  0  0
   -1.3481   -0.9837   -0.4130 C   0  0  0  0  0  0  0  0  0  0  0  0
    5.4242    1.9115    2.1521 H   0  0  0  0  0  0  0  0  0  0  0  0
    6.7864    0.4325    0.7137 H   0  0  0  0  0  0  0  0  0  0  0  0
    5.7100   -0.8942   -1.0801 H   0  0  0  0  0  0  0  0  0  0  0  0
    3.2765   -0.7437   -1.4480 H   0  0  0  0  0  0  0  0  0  0  0  0
    1.0766    1.7795    0.1246 H   0  0  0  0  0  0  0  0  0  0  0  0
    1.2233    0.5410   -1.1537 H   0  0  0  0  0  0  0  0  0  0  0  0
    1.1116   -1.2849    0.5826 H   0  0  0  0  0  0  0  0  0  0  0  0
    0.9697   -0.0527    1.8747 H   0  0  0  0  0  0  0  0  0  0  0  0
   -1.0860    1.3039    2.1034 H   0  0  0  0  0  0  0  0  0  0  0  0
   -3.5058    1.4491    1.7198 H   0  0  0  0  0  0  0  0  0  0  0  0
   -5.5249    0.7234    0.4858 H   0  0  0  0  0  0  0  0  0  0  0  0
   -6.5612   -0.6706   -1.2650 H   0  0  0  0  0  0  0  0  0  0  0  0
   -5.1773   -2.2100   -2.6231 H   0  0  0  0  0  0  0  0  0  0  0  0
   -2.7464   -2.3692   -2.2405 H   0  0  0  0  0  0  0  0  0  0  0  0
   -0.7358   -1.6498   -1.0107 H   0  0  0  0  0  0  0  0  0  0  0  0
  1  2  1  0
  2  3  2  0
  3  4  1  0
  4  5  2  0
  5  6  1  0
  6  7  2  0
  7  8  1  0
  8  9  1  0
  9 10  1  0
 10 11  1  0
 11 12  2  0
 12 13  1  0
 13 14  2  0
 14 15  1  0
 15 16  2  0
 16 17  1  0
 17 18  2  0
 18 19  1  0
  7  2  1  0
 18 13  1  0
 19 10  2  0
  3 20  1  0
  4 21  1  0
  5 22  1  0
  6 23  1  0
  8 24  1  0
  8 25  1  0
  9 26  1  0
  9 27  1  0
 11 28  1  0
 12 29  1  0
 14 30  1  0
 15 31  1  0
 16 32  1  0
 17 33  1  0
 19 34  1  0
M  RAD  1   1   3
M  END
$$$$
