
     RDKit          3D

 34 36  0  0  0  0  0  0  0  0999 V2000
   -2.5084   -2.9266   -1.3445 N   0  0  0  0  0  1  0  0  0  0  0  0
   -3.3740   -1.8417   -1.0170 C   0  0  0  0  0  0  0  0  0  0  0  0
   -4.6953   -1.8590   -1.4801 C   0  0  0  0  0  0  0  0  0  0  0  0
   -5.5585   -0.8008   -1.1859 C   0  0  0  0  0  0  0  0  0  0  0  0
   -5.1045    0.2825   -0.4312 C   0  0  0  0  0  0  0  0  0  0  0  0
   -3.7875    0.3087    0.0356 C   0  0  0  0  0  0  0  0  0  0  0  0
   -2.9129   -0.7568   -0.2405 C   0  0  0  0  0  0  0  0  0  0  0  0
   -1.4860   -0.6915    0.2460 C   0  0  0  0  0  0  0  0  0  0  0  0
   -0.5817   -0.0618   -0.8178 C   0  0  0  0  0  0  0  0  0  0  0  0
    0.8417    0.0004   -0.3323 C   0  0  0  0  0  0  0  0  0  0  0  0
    1.7111   -1.0786   -0.5562 C   0  0  0  0  0  0  0  0  0  0  0  0
    3.0240   -1.0418   -0.0793 C   0  0  0  0  0  0  0  0  0  0  0  0
    3.4829    0.0719    0.6383 C   0  0  0  0  0  0  0  0  0  0  0  0
    4.7995    0.1187    1.1229 C   0  0  0  0  0  0  0  0  0  0  0  0
    5.2434    1.2327    1.8411 C   0  0  0  0  0  0  0  0  0  0  0  0
    4.3797    2.3047    2.0814 C   0  0  0  0  0  0  0  0  0  0  0  0
    3.0661    2.2706    1.6046 C   0  0  0  0  0  0  0  0  0  0  0  0
    2.6078    1.1586    0.8807 C   0  0  0  0  0  0  0  0  0  0  0  0
    1.2913    1.1125    0.3975 C   0  0  0  0  0  0  0  0  0  0  0  0
   -5.0531   -2.6918   -2.0725 H   0  0  0  0  0  0  0  0  0  0  0  0
   -6.5785   -0.8184   -1.5475 H   0  0  0  0  0  0  0  0  0  0  0  0
   -5.7727    1.1049   -0.2103 H   0  0  0  0  0  0  0  0  0  0  0  0
   -3.4486    1.1610    0.6117 H   0  0  0  0  0  0  0  0  0  0  0  0
   -1.4332   -0.0908    1.1811 H   0  0  0  0  0  0  0  0  0  0  0  0
   -1.1212   -1.7112    0.4981 H   0  0  0  0  0  0  0  0  0  0  0  0
   -0.9431    0.9628   -1.0575 H   0  0  0  0  0  0  0  0  0  0  0  0
   -0.6331   -0.6569   -1.7562 H   0  0  0  0  0  0  0  0  0  0  0  0
    1.3703   -1.9511   -1.1000 H   0  0  0  0  0  0  0  0  0  0  0  0
    3.6783   -1.8846   -0.2681 H   0  0  0  0  0  0  0  0  0  0  0  0
    5.4825   -0.7039    0.9472 H   0  0  0  0  0  0  0  0  0  0  0  0
    6.2593    1.2649    2.2131 H   0  0  0  0  0  0  0  0  0  0  0  0
    4.7292    3.1642    2.6387 H   0  0  0  0  0  0  0  0  0  0  0  0
    2.4106    3.1108    1.8006 H   0  0  0  0  0  0  0  0  0  0  0  0
    0.6143    1.9377    0.5883 H   0  0  0  0  0  0  0  0  0  0  0  0
  1  2  1  0
  2  3  2  0
  3  4  1  0
  4  5  2  0
  5  6  1  0
  6  7  2  0
  7  8  1  0
  8  9  1  0
  9 10  1  0
 10 11  1  0
 11 12  2  0
 12 13  1  0
 13 14  2  0
 14 15  1  0
 15 16  2  0
 16 17  1  0
 17 18  2  0
 18 19  1  0
  7  2  1  0
 18 13  1  0
 19 10  2  0
  3 20  1  0
  4 21  1  0
  5 22  1  0
  6 23  1  0
  8 24  1  0
  8 25  1  0
  9 26  1  0
  9 27  1  0
 11 28  1  0
 12 29  1  0
 14 30  1  0
 15 31  1  0
 16 32  1  0
 17 33  1  0
 19 34  1  0
M  RAD  1   1   3
M  END
$$$$
