
     RDKit          3D

 31 32  0  0  0  0  0  0  0  0999 V2000
   -4.7977   -0.2381   -0.6324 C   0  0  0  0  0  0  0  0  0  0  0  0
   -3.3685   -0.3637   -0.1951 C   0  0  0  0  0  0  0  0  0  0  0  0
   -2.3813   -0.7584   -1.1102 C   0  0  0  0  0  0  0  0  0  0  0  0
   -1.0553   -0.9103   -0.6950 C   0  0  0  0  0  0  0  0  0  0  0  0
   -0.7001   -0.6845    0.6444 C   0  0  0  0  0  0  0  0  0  0  0  0
    0.7347   -0.8356    1.0855 C   0  0  0  0  0  0  0  0  0  0  0  0
    1.6047    0.2636    0.5076 C   0  0  0  0  0  0  0  0  0  0  0  0
    1.2725    1.5970    0.8179 C   0  0  0  0  0  0  0  0  0  0  0  0
    2.0212    2.6584    0.3107 C   0  0  0  0  0  0  0  0  0  0  0  0
    3.1212    2.4084   -0.5051 C   0  0  0  0  0  0  0  0  0  0  0  0
    3.4844    1.0958   -0.8067 C   0  0  0  0  0  0  0  0  0  0  0  0
    2.7465    0.0100   -0.3030 C   0  0  0  0  0  0  0  0  0  0  0  0
    3.3062   -1.6298   -0.6797 S   0  0  0  0  0  0  0  0  0  0  0  0
    2.1125   -2.4642   -1.6083 N   0  0  0  0  0  1  0  0  0  0  0  0
    3.5734   -2.3778    0.5961 O   0  0  0  0  0  0  0  0  0  0  0  0
    4.5794   -1.5775   -1.4771 O   0  0  0  0  0  0  0  0  0  0  0  0
   -1.6924   -0.3034    1.5624 C   0  0  0  0  0  0  0  0  0  0  0  0
   -3.0185   -0.1515    1.1467 C   0  0  0  0  0  0  0  0  0  0  0  0
   -5.3286    0.5238   -0.0226 H   0  0  0  0  0  0  0  0  0  0  0  0
   -4.8558    0.0737   -1.6971 H   0  0  0  0  0  0  0  0  0  0  0  0
   -5.3075   -1.2168   -0.5132 H   0  0  0  0  0  0  0  0  0  0  0  0
   -2.6373   -0.9456   -2.1458 H   0  0  0  0  0  0  0  0  0  0  0  0
   -0.3052   -1.2010   -1.4184 H   0  0  0  0  0  0  0  0  0  0  0  0
    0.8098   -0.7940    2.1939 H   0  0  0  0  0  0  0  0  0  0  0  0
    1.0707   -1.8487    0.7982 H   0  0  0  0  0  0  0  0  0  0  0  0
    0.4231    1.8163    1.4531 H   0  0  0  0  0  0  0  0  0  0  0  0
    1.7473    3.6775    0.5516 H   0  0  0  0  0  0  0  0  0  0  0  0
    3.7007    3.2338   -0.8982 H   0  0  0  0  0  0  0  0  0  0  0  0
    4.3523    0.9322   -1.4316 H   0  0  0  0  0  0  0  0  0  0  0  0
   -1.4410   -0.1234    2.6003 H   0  0  0  0  0  0  0  0  0  0  0  0
   -3.7716    0.1338    1.8710 H   0  0  0  0  0  0  0  0  0  0  0  0
  1  2  1  0
  2  3  1  0
  3  4  2  0
  4  5  1  0
  5  6  1  0
  6  7  1  0
  7  8  2  0
  8  9  1  0
  9 10  2  0
 10 11  1  0
 11 12  2  0
 12 13  1  0
 13 14  1  0
 13 15  2  0
 13 16  2  0
  5 17  2  0
 17 18  1  0
 18  2  2  0
 12  7  1  0
  1 19  1  0
  1 20  1  0
  1 21  1  0
  3 22  1  0
  4 23  1  0
  6 24  1  0
  6 25  1  0
  8 26  1  0
  9 27  1  0
 10 28  1  0
 11 29  1  0
 17 30  1  0
 18 31  1  0
M  RAD  1  14   3
M  END
$$$$
