
     RDKit          3D

 31 32  0  0  0  0  0  0  0  0999 V2000
    4.8126    0.1471    0.7684 C   0  0  0  0  0  0  0  0  0  0  0  0
    3.3631    0.3870    0.4668 C   0  0  0  0  0  0  0  0  0  0  0  0
    2.4062    0.3116    1.4898 C   0  0  0  0  0  0  0  0  0  0  0  0
    1.0601    0.5702    1.2165 C   0  0  0  0  0  0  0  0  0  0  0  0
    0.6536    0.9228   -0.0802 C   0  0  0  0  0  0  0  0  0  0  0  0
   -0.8024    1.1872   -0.3742 C   0  0  0  0  0  0  0  0  0  0  0  0
   -1.6177   -0.0891   -0.2985 C   0  0  0  0  0  0  0  0  0  0  0  0
   -1.2643   -1.1473   -1.1587 C   0  0  0  0  0  0  0  0  0  0  0  0
   -1.9625   -2.3541   -1.1340 C   0  0  0  0  0  0  0  0  0  0  0  0
   -3.0325   -2.5226   -0.2596 C   0  0  0  0  0  0  0  0  0  0  0  0
   -3.4165   -1.4808    0.5848 C   0  0  0  0  0  0  0  0  0  0  0  0
   -2.7297   -0.2539    0.5740 C   0  0  0  0  0  0  0  0  0  0  0  0
   -3.3154    1.0433    1.6316 S   0  0  0  0  0  0  0  0  0  0  0  0
   -2.1050    1.4510    2.7944 N   0  0  0  0  0  1  0  0  0  0  0  0
   -3.6568    2.2522    0.8066 O   0  0  0  0  0  0  0  0  0  0  0  0
   -4.5512    0.6021    2.3648 O   0  0  0  0  0  0  0  0  0  0  0  0
    1.6150    1.0119   -1.1002 C   0  0  0  0  0  0  0  0  0  0  0  0
    2.9613    0.7532   -0.8265 C   0  0  0  0  0  0  0  0  0  0  0  0
    5.3365   -0.2586   -0.1232 H   0  0  0  0  0  0  0  0  0  0  0  0
    4.9246   -0.5864    1.5952 H   0  0  0  0  0  0  0  0  0  0  0  0
    5.2910    1.1036    1.0655 H   0  0  0  0  0  0  0  0  0  0  0  0
    2.7016    0.0497    2.4983 H   0  0  0  0  0  0  0  0  0  0  0  0
    0.3344    0.4926    2.0152 H   0  0  0  0  0  0  0  0  0  0  0  0
   -1.1521    1.9657    0.3282 H   0  0  0  0  0  0  0  0  0  0  0  0
   -0.9240    1.6194   -1.3913 H   0  0  0  0  0  0  0  0  0  0  0  0
   -0.4376   -1.0386   -1.8500 H   0  0  0  0  0  0  0  0  0  0  0  0
   -1.6726   -3.1604   -1.7954 H   0  0  0  0  0  0  0  0  0  0  0  0
   -3.5726   -3.4604   -0.2416 H   0  0  0  0  0  0  0  0  0  0  0  0
   -4.2607   -1.6361    1.2433 H   0  0  0  0  0  0  0  0  0  0  0  0
    1.3239    1.2816   -2.1078 H   0  0  0  0  0  0  0  0  0  0  0  0
    3.6897    0.8362   -1.6237 H   0  0  0  0  0  0  0  0  0  0  0  0
  1  2  1  0
  2  3  1  0
  3  4  2  0
  4  5  1  0
  5  6  1  0
  6  7  1  0
  7  8  2  0
  8  9  1  0
  9 10  2  0
 10 11  1  0
 11 12  2  0
 12 13  1  0
 13 14  1  0
 13 15  2  0
 13 16  2  0
  5 17  2  0
 17 18  1  0
 18  2  2  0
 12  7  1  0
  1 19  1  0
  1 20  1  0
  1 21  1  0
  3 22  1  0
  4 23  1  0
  6 24  1  0
  6 25  1  0
  8 26  1  0
  9 27  1  0
 10 28  1  0
 11 29  1  0
 17 30  1  0
 18 31  1  0
M  RAD  1  14   3
M  END
$$$$
