
     RDKit          3D

 31 32  0  0  0  0  0  0  0  0999 V2000
    4.7072   -0.8231   -0.8574 C   0  0  0  0  0  0  0  0  0  0  0  0
    3.3530   -0.5630   -0.2674 C   0  0  0  0  0  0  0  0  0  0  0  0
    2.2915   -1.4451   -0.5183 C   0  0  0  0  0  0  0  0  0  0  0  0
    1.0198   -1.1833   -0.0005 C   0  0  0  0  0  0  0  0  0  0  0  0
    0.7888   -0.0304    0.7667 C   0  0  0  0  0  0  0  0  0  0  0  0
   -0.5890    0.2569    1.3100 C   0  0  0  0  0  0  0  0  0  0  0  0
   -1.5532    0.6187    0.1971 C   0  0  0  0  0  0  0  0  0  0  0  0
   -1.2443    1.7359   -0.6036 C   0  0  0  0  0  0  0  0  0  0  0  0
   -2.0795    2.1181   -1.6528 C   0  0  0  0  0  0  0  0  0  0  0  0
   -3.2431    1.4003   -1.9144 C   0  0  0  0  0  0  0  0  0  0  0  0
   -3.5828    0.3051   -1.1202 C   0  0  0  0  0  0  0  0  0  0  0  0
   -2.7578   -0.0958   -0.0544 C   0  0  0  0  0  0  0  0  0  0  0  0
   -3.2879   -1.4590    0.9481 S   0  0  0  0  0  0  0  0  0  0  0  0
   -2.1591   -2.7603    0.8227 N   0  0  0  0  0  1  0  0  0  0  0  0
   -3.4004   -1.0187    2.3806 O   0  0  0  0  0  0  0  0  0  0  0  0
   -4.6338   -1.9502    0.4934 O   0  0  0  0  0  0  0  0  0  0  0  0
    1.8476    0.8629    0.9985 C   0  0  0  0  0  0  0  0  0  0  0  0
    3.1193    0.6006    0.4804 C   0  0  0  0  0  0  0  0  0  0  0  0
    4.8900   -1.9147   -0.9526 H   0  0  0  0  0  0  0  0  0  0  0  0
    4.7675   -0.3566   -1.8627 H   0  0  0  0  0  0  0  0  0  0  0  0
    5.5043   -0.3969   -0.2116 H   0  0  0  0  0  0  0  0  0  0  0  0
    2.4476   -2.3346   -1.1162 H   0  0  0  0  0  0  0  0  0  0  0  0
    0.2130   -1.8741   -0.2064 H   0  0  0  0  0  0  0  0  0  0  0  0
   -0.5562    1.1012    2.0325 H   0  0  0  0  0  0  0  0  0  0  0  0
   -0.9125   -0.6254    1.8920 H   0  0  0  0  0  0  0  0  0  0  0  0
   -0.3463    2.3120   -0.4173 H   0  0  0  0  0  0  0  0  0  0  0  0
   -1.8231    2.9738   -2.2641 H   0  0  0  0  0  0  0  0  0  0  0  0
   -3.8897    1.6984   -2.7298 H   0  0  0  0  0  0  0  0  0  0  0  0
   -4.5005   -0.2246   -1.3386 H   0  0  0  0  0  0  0  0  0  0  0  0
    1.6884    1.7663    1.5739 H   0  0  0  0  0  0  0  0  0  0  0  0
    3.9212    1.3057    0.6617 H   0  0  0  0  0  0  0  0  0  0  0  0
  1  2  1  0
  2  3  1  0
  3  4  2  0
  4  5  1  0
  5  6  1  0
  6  7  1  0
  7  8  2  0
  8  9  1  0
  9 10  2  0
 10 11  1  0
 11 12  2  0
 12 13  1  0
 13 14  1  0
 13 15  2  0
 13 16  2  0
  5 17  2  0
 17 18  1  0
 18  2  2  0
 12  7  1  0
  1 19  1  0
  1 20  1  0
  1 21  1  0
  3 22  1  0
  4 23  1  0
  6 24  1  0
  6 25  1  0
  8 26  1  0
  9 27  1  0
 10 28  1  0
 11 29  1  0
 17 30  1  0
 18 31  1  0
M  RAD  1  14   3
M  END
$$$$
