
     RDKit          3D

 31 32  0  0  0  0  0  0  0  0999 V2000
    4.6021    0.5499   -0.6629 C   0  0  0  0  0  0  0  0  0  0  0  0
    3.2199    0.3529   -0.1149 C   0  0  0  0  0  0  0  0  0  0  0  0
    2.4983   -0.8106   -0.4190 C   0  0  0  0  0  0  0  0  0  0  0  0
    1.2245   -1.0117    0.1201 C   0  0  0  0  0  0  0  0  0  0  0  0
    0.6513   -0.0494    0.9690 C   0  0  0  0  0  0  0  0  0  0  0  0
   -0.7107   -0.2749    1.5772 C   0  0  0  0  0  0  0  0  0  0  0  0
   -1.7595   -0.6026    0.5328 C   0  0  0  0  0  0  0  0  0  0  0  0
   -2.1919   -1.9389    0.4278 C   0  0  0  0  0  0  0  0  0  0  0  0
   -3.1397   -2.3118   -0.5245 C   0  0  0  0  0  0  0  0  0  0  0  0
   -3.6680   -1.3602   -1.3920 C   0  0  0  0  0  0  0  0  0  0  0  0
   -3.2512   -0.0316   -1.3108 C   0  0  0  0  0  0  0  0  0  0  0  0
   -2.3025    0.3696   -0.3538 C   0  0  0  0  0  0  0  0  0  0  0  0
   -1.8062    2.0732   -0.3345 S   0  0  0  0  0  0  0  0  0  0  0  0
   -2.8801    3.0212   -1.3020 N   0  0  0  0  0  1  0  0  0  0  0  0
   -1.8410    2.6204    1.0640 O   0  0  0  0  0  0  0  0  0  0  0  0
   -0.4194    2.2016   -0.8969 O   0  0  0  0  0  0  0  0  0  0  0  0
    1.3946    1.0941    1.3059 C   0  0  0  0  0  0  0  0  0  0  0  0
    2.6683    1.2945    0.7662 C   0  0  0  0  0  0  0  0  0  0  0  0
    5.3421    0.1001    0.0315 H   0  0  0  0  0  0  0  0  0  0  0  0
    4.8262    1.6316   -0.7807 H   0  0  0  0  0  0  0  0  0  0  0  0
    4.7007    0.0687   -1.6593 H   0  0  0  0  0  0  0  0  0  0  0  0
    2.9228   -1.5640   -1.0711 H   0  0  0  0  0  0  0  0  0  0  0  0
    0.6871   -1.9194   -0.1234 H   0  0  0  0  0  0  0  0  0  0  0  0
   -1.0389    0.5984    2.1748 H   0  0  0  0  0  0  0  0  0  0  0  0
   -0.6192   -1.1042    2.3120 H   0  0  0  0  0  0  0  0  0  0  0  0
   -1.7891   -2.7011    1.0837 H   0  0  0  0  0  0  0  0  0  0  0  0
   -3.4615   -3.3430   -0.5926 H   0  0  0  0  0  0  0  0  0  0  0  0
   -4.3996   -1.6530   -2.1340 H   0  0  0  0  0  0  0  0  0  0  0  0
   -3.6709    0.6818   -2.0069 H   0  0  0  0  0  0  0  0  0  0  0  0
    0.9869    1.8349    1.9825 H   0  0  0  0  0  0  0  0  0  0  0  0
    3.2246    2.1836    1.0366 H   0  0  0  0  0  0  0  0  0  0  0  0
  1  2  1  0
  2  3  1  0
  3  4  2  0
  4  5  1  0
  5  6  1  0
  6  7  1  0
  7  8  2  0
  8  9  1  0
  9 10  2  0
 10 11  1  0
 11 12  2  0
 12 13  1  0
 13 14  1  0
 13 15  2  0
 13 16  2  0
  5 17  2  0
 17 18  1  0
 18  2  2  0
 12  7  1  0
  1 19  1  0
  1 20  1  0
  1 21  1  0
  3 22  1  0
  4 23  1  0
  6 24  1  0
  6 25  1  0
  8 26  1  0
  9 27  1  0
 10 28  1  0
 11 29  1  0
 17 30  1  0
 18 31  1  0
M  RAD  1  14   3
M  END
$$$$
