
     RDKit          3D

 31 32  0  0  0  0  0  0  0  0999 V2000
    4.7094   -0.4781    1.2646 C   0  0  0  0  0  0  0  0  0  0  0  0
    3.3422   -0.3987    0.6528 C   0  0  0  0  0  0  0  0  0  0  0  0
    3.1111    0.4279   -0.4568 C   0  0  0  0  0  0  0  0  0  0  0  0
    1.8461    0.4754   -1.0498 C   0  0  0  0  0  0  0  0  0  0  0  0
    0.7981   -0.3157   -0.5510 C   0  0  0  0  0  0  0  0  0  0  0  0
   -0.5728   -0.2540   -1.1772 C   0  0  0  0  0  0  0  0  0  0  0  0
   -1.5539    0.4617   -0.2701 C   0  0  0  0  0  0  0  0  0  0  0  0
   -1.2919    1.8093    0.0449 C   0  0  0  0  0  0  0  0  0  0  0  0
   -2.1420    2.5265    0.8857 C   0  0  0  0  0  0  0  0  0  0  0  0
   -3.2731    1.9151    1.4193 C   0  0  0  0  0  0  0  0  0  0  0  0
   -3.5642    0.5873    1.1063 C   0  0  0  0  0  0  0  0  0  0  0  0
   -2.7229   -0.1545    0.2585 C   0  0  0  0  0  0  0  0  0  0  0  0
   -3.1870   -1.8193   -0.1388 S   0  0  0  0  0  0  0  0  0  0  0  0
   -4.6779   -2.2402    0.6281 N   0  0  0  0  0  1  0  0  0  0  0  0
   -2.1255   -2.7728    0.3312 O   0  0  0  0  0  0  0  0  0  0  0  0
   -3.3647   -1.9506   -1.6252 O   0  0  0  0  0  0  0  0  0  0  0  0
    1.0353   -1.1523    0.5513 C   0  0  0  0  0  0  0  0  0  0  0  0
    2.3004   -1.1994    1.1439 C   0  0  0  0  0  0  0  0  0  0  0  0
    5.2425    0.4909    1.1597 H   0  0  0  0  0  0  0  0  0  0  0  0
    4.6409   -0.7164    2.3474 H   0  0  0  0  0  0  0  0  0  0  0  0
    5.2959   -1.2711    0.7556 H   0  0  0  0  0  0  0  0  0  0  0  0
    3.9094    1.0378   -0.8615 H   0  0  0  0  0  0  0  0  0  0  0  0
    1.6852    1.1294   -1.8979 H   0  0  0  0  0  0  0  0  0  0  0  0
   -0.8839   -1.2855   -1.4249 H   0  0  0  0  0  0  0  0  0  0  0  0
   -0.5338    0.2875   -2.1475 H   0  0  0  0  0  0  0  0  0  0  0  0
   -0.4191    2.3065   -0.3603 H   0  0  0  0  0  0  0  0  0  0  0  0
   -1.9227    3.5594    1.1237 H   0  0  0  0  0  0  0  0  0  0  0  0
   -3.9315    2.4737    2.0721 H   0  0  0  0  0  0  0  0  0  0  0  0
   -4.4568    0.1448    1.5266 H   0  0  0  0  0  0  0  0  0  0  0  0
    0.2409   -1.7663    0.9535 H   0  0  0  0  0  0  0  0  0  0  0  0
    2.4663   -1.8580    1.9875 H   0  0  0  0  0  0  0  0  0  0  0  0
  1  2  1  0
  2  3  1  0
  3  4  2  0
  4  5  1  0
  5  6  1  0
  6  7  1  0
  7  8  2  0
  8  9  1  0
  9 10  2  0
 10 11  1  0
 11 12  2  0
 12 13  1  0
 13 14  1  0
 13 15  2  0
 13 16  2  0
  5 17  2  0
 17 18  1  0
 18  2  2  0
 12  7  1  0
  1 19  1  0
  1 20  1  0
  1 21  1  0
  3 22  1  0
  4 23  1  0
  6 24  1  0
  6 25  1  0
  8 26  1  0
  9 27  1  0
 10 28  1  0
 11 29  1  0
 17 30  1  0
 18 31  1  0
M  RAD  1  14   3
M  END
$$$$
