
     RDKit          3D

 31 32  0  0  0  0  0  0  0  0999 V2000
   -4.7289    0.4579    0.7529 C   0  0  0  0  0  0  0  0  0  0  0  0
   -3.3615    0.2720    0.1651 C   0  0  0  0  0  0  0  0  0  0  0  0
   -2.3813    1.2620    0.3285 C   0  0  0  0  0  0  0  0  0  0  0  0
   -1.1180    1.1058   -0.2492 C   0  0  0  0  0  0  0  0  0  0  0  0
   -0.8221   -0.0352   -1.0119 C   0  0  0  0  0  0  0  0  0  0  0  0
    0.5477   -0.2091   -1.6193 C   0  0  0  0  0  0  0  0  0  0  0  0
    1.5825   -0.5062   -0.5523 C   0  0  0  0  0  0  0  0  0  0  0  0
    1.4234   -1.6831    0.2051 C   0  0  0  0  0  0  0  0  0  0  0  0
    2.3276   -2.0132    1.2138 C   0  0  0  0  0  0  0  0  0  0  0  0
    3.4112   -1.1803    1.4784 C   0  0  0  0  0  0  0  0  0  0  0  0
    3.6009   -0.0193    0.7287 C   0  0  0  0  0  0  0  0  0  0  0  0
    2.7035    0.3321   -0.2952 C   0  0  0  0  0  0  0  0  0  0  0  0
    3.0401    1.7929   -1.2425 S   0  0  0  0  0  0  0  0  0  0  0  0
    4.4976    2.5509   -0.7044 N   0  0  0  0  0  1  0  0  0  0  0  0
    1.9115    2.7728   -1.0911 O   0  0  0  0  0  0  0  0  0  0  0  0
    3.2029    1.4266   -2.6908 O   0  0  0  0  0  0  0  0  0  0  0  0
   -1.8092   -1.0192   -1.1856 C   0  0  0  0  0  0  0  0  0  0  0  0
   -3.0724   -0.8625   -0.6076 C   0  0  0  0  0  0  0  0  0  0  0  0
   -4.6751    1.0521    1.6900 H   0  0  0  0  0  0  0  0  0  0  0  0
   -5.1880   -0.5241    0.9954 H   0  0  0  0  0  0  0  0  0  0  0  0
   -5.3749    0.9896    0.0235 H   0  0  0  0  0  0  0  0  0  0  0  0
   -2.5935    2.1536    0.9056 H   0  0  0  0  0  0  0  0  0  0  0  0
   -0.3707    1.8733   -0.0997 H   0  0  0  0  0  0  0  0  0  0  0  0
    0.5465   -1.0478   -2.3492 H   0  0  0  0  0  0  0  0  0  0  0  0
    0.7797    0.6971   -2.2083 H   0  0  0  0  0  0  0  0  0  0  0  0
    0.5892   -2.3474    0.0157 H   0  0  0  0  0  0  0  0  0  0  0  0
    2.1872   -2.9176    1.7916 H   0  0  0  0  0  0  0  0  0  0  0  0
    4.1117   -1.4383    2.2622 H   0  0  0  0  0  0  0  0  0  0  0  0
    4.4590    0.6002    0.9502 H   0  0  0  0  0  0  0  0  0  0  0  0
   -1.6023   -1.9083   -1.7682 H   0  0  0  0  0  0  0  0  0  0  0  0
   -3.8239   -1.6272   -0.7608 H   0  0  0  0  0  0  0  0  0  0  0  0
  1  2  1  0
  2  3  1  0
  3  4  2  0
  4  5  1  0
  5  6  1  0
  6  7  1  0
  7  8  2  0
  8  9  1  0
  9 10  2  0
 10 11  1  0
 11 12  2  0
 12 13  1  0
 13 14  1  0
 13 15  2  0
 13 16  2  0
  5 17  2  0
 17 18  1  0
 18  2  2  0
 12  7  1  0
  1 19  1  0
  1 20  1  0
  1 21  1  0
  3 22  1  0
  4 23  1  0
  6 24  1  0
  6 25  1  0
  8 26  1  0
  9 27  1  0
 10 28  1  0
 11 29  1  0
 17 30  1  0
 18 31  1  0
M  RAD  1  14   3
M  END
$$$$
