
     RDKit          3D

 31 32  0  0  0  0  0  0  0  0999 V2000
    4.2433   -1.3492   -1.4431 C   0  0  0  0  0  0  0  0  0  0  0  0
    3.0542   -0.8428   -0.6822 C   0  0  0  0  0  0  0  0  0  0  0  0
    2.6313   -1.4962    0.4846 C   0  0  0  0  0  0  0  0  0  0  0  0
    1.5454   -1.0042    1.2146 C   0  0  0  0  0  0  0  0  0  0  0  0
    0.8631    0.1464    0.7860 C   0  0  0  0  0  0  0  0  0  0  0  0
   -0.2896    0.6895    1.5935 C   0  0  0  0  0  0  0  0  0  0  0  0
   -1.5146    0.9543    0.7405 C   0  0  0  0  0  0  0  0  0  0  0  0
   -1.8227    2.2919    0.4247 C   0  0  0  0  0  0  0  0  0  0  0  0
   -2.9240    2.6038   -0.3717 C   0  0  0  0  0  0  0  0  0  0  0  0
   -3.7331    1.5874   -0.8714 C   0  0  0  0  0  0  0  0  0  0  0  0
   -3.4449    0.2550   -0.5766 C   0  0  0  0  0  0  0  0  0  0  0  0
   -2.3445   -0.0835    0.2304 C   0  0  0  0  0  0  0  0  0  0  0  0
   -2.0315   -1.8034    0.5355 S   0  0  0  0  0  0  0  0  0  0  0  0
   -3.3913   -2.7549    0.0521 N   0  0  0  0  0  1  0  0  0  0  0  0
   -0.8344   -2.2469   -0.2558 O   0  0  0  0  0  0  0  0  0  0  0  0
   -1.7941   -2.0484    1.9983 O   0  0  0  0  0  0  0  0  0  0  0  0
    1.3164    0.8231   -0.3595 C   0  0  0  0  0  0  0  0  0  0  0  0
    2.4024    0.3307   -1.0887 C   0  0  0  0  0  0  0  0  0  0  0  0
    4.1547   -1.0972   -2.5214 H   0  0  0  0  0  0  0  0  0  0  0  0
    5.1663   -0.8851   -1.0372 H   0  0  0  0  0  0  0  0  0  0  0  0
    4.3237   -2.4537   -1.3545 H   0  0  0  0  0  0  0  0  0  0  0  0
    3.1429   -2.3860    0.8305 H   0  0  0  0  0  0  0  0  0  0  0  0
    1.2344   -1.5256    2.1113 H   0  0  0  0  0  0  0  0  0  0  0  0
    0.0538    1.6259    2.0846 H   0  0  0  0  0  0  0  0  0  0  0  0
   -0.5555    0.0123    2.4290 H   0  0  0  0  0  0  0  0  0  0  0  0
   -1.2034    3.1010    0.7920 H   0  0  0  0  0  0  0  0  0  0  0  0
   -3.1473    3.6367   -0.6056 H   0  0  0  0  0  0  0  0  0  0  0  0
   -4.5844    1.8317   -1.4938 H   0  0  0  0  0  0  0  0  0  0  0  0
   -4.0850   -0.5125   -0.9899 H   0  0  0  0  0  0  0  0  0  0  0  0
    0.8313    1.7335   -0.6878 H   0  0  0  0  0  0  0  0  0  0  0  0
    2.7368    0.8665   -1.9685 H   0  0  0  0  0  0  0  0  0  0  0  0
  1  2  1  0
  2  3  1  0
  3  4  2  0
  4  5  1  0
  5  6  1  0
  6  7  1  0
  7  8  2  0
  8  9  1  0
  9 10  2  0
 10 11  1  0
 11 12  2  0
 12 13  1  0
 13 14  1  0
 13 15  2  0
 13 16  2  0
  5 17  2  0
 17 18  1  0
 18  2  2  0
 12  7  1  0
  1 19  1  0
  1 20  1  0
  1 21  1  0
  3 22  1  0
  4 23  1  0
  6 24  1  0
  6 25  1  0
  8 26  1  0
  9 27  1  0
 10 28  1  0
 11 29  1  0
 17 30  1  0
 18 31  1  0
M  RAD  1  14   3
M  END
$$$$
