
     RDKit          3D

 31 32  0  0  0  0  0  0  0  0999 V2000
    4.7610    0.7615   -0.3958 C   0  0  0  0  0  0  0  0  0  0  0  0
    3.3754    0.2282   -0.1824 C   0  0  0  0  0  0  0  0  0  0  0  0
    2.4360    0.2642   -1.2235 C   0  0  0  0  0  0  0  0  0  0  0  0
    1.1558   -0.2650   -1.0367 C   0  0  0  0  0  0  0  0  0  0  0  0
    0.8018   -0.8521    0.1884 C   0  0  0  0  0  0  0  0  0  0  0  0
   -0.5862   -1.4065    0.3926 C   0  0  0  0  0  0  0  0  0  0  0  0
   -1.6082   -0.2916    0.4941 C   0  0  0  0  0  0  0  0  0  0  0  0
   -1.4763    0.6234    1.5568 C   0  0  0  0  0  0  0  0  0  0  0  0
   -2.3701    1.6833    1.7043 C   0  0  0  0  0  0  0  0  0  0  0  0
   -3.4164    1.8435    0.8001 C   0  0  0  0  0  0  0  0  0  0  0  0
   -3.5793    0.9388   -0.2491 C   0  0  0  0  0  0  0  0  0  0  0  0
   -2.6918   -0.1390   -0.4158 C   0  0  0  0  0  0  0  0  0  0  0  0
   -2.9946   -1.2796   -1.7394 S   0  0  0  0  0  0  0  0  0  0  0  0
   -4.4114   -0.8321   -2.6230 N   0  0  0  0  0  1  0  0  0  0  0  0
   -3.2018   -2.6580   -1.1778 O   0  0  0  0  0  0  0  0  0  0  0  0
   -1.8277   -1.2877   -2.6855 O   0  0  0  0  0  0  0  0  0  0  0  0
    1.7481   -0.8993    1.2253 C   0  0  0  0  0  0  0  0  0  0  0  0
    3.0283   -0.3699    1.0381 C   0  0  0  0  0  0  0  0  0  0  0  0
    4.7492    1.6049   -1.1187 H   0  0  0  0  0  0  0  0  0  0  0  0
    5.1888    1.1343    0.5592 H   0  0  0  0  0  0  0  0  0  0  0  0
    5.4103   -0.0466   -0.7926 H   0  0  0  0  0  0  0  0  0  0  0  0
    2.6932    0.7046   -2.1790 H   0  0  0  0  0  0  0  0  0  0  0  0
    0.4406   -0.2147   -1.8466 H   0  0  0  0  0  0  0  0  0  0  0  0
   -0.7973   -2.1151   -0.4292 H   0  0  0  0  0  0  0  0  0  0  0  0
   -0.6315   -2.0091    1.3260 H   0  0  0  0  0  0  0  0  0  0  0  0
   -0.6712    0.5175    2.2737 H   0  0  0  0  0  0  0  0  0  0  0  0
   -2.2507    2.3820    2.5223 H   0  0  0  0  0  0  0  0  0  0  0  0
   -4.1090    2.6672    0.9164 H   0  0  0  0  0  0  0  0  0  0  0  0
   -4.4091    1.0833   -0.9272 H   0  0  0  0  0  0  0  0  0  0  0  0
    1.4961   -1.3457    2.1793 H   0  0  0  0  0  0  0  0  0  0  0  0
    3.7477   -0.4243    1.8459 H   0  0  0  0  0  0  0  0  0  0  0  0
  1  2  1  0
  2  3  1  0
  3  4  2  0
  4  5  1  0
  5  6  1  0
  6  7  1  0
  7  8  2  0
  8  9  1  0
  9 10  2  0
 10 11  1  0
 11 12  2  0
 12 13  1  0
 13 14  1  0
 13 15  2  0
 13 16  2  0
  5 17  2  0
 17 18  1  0
 18  2  2  0
 12  7  1  0
  1 19  1  0
  1 20  1  0
  1 21  1  0
  3 22  1  0
  4 23  1  0
  6 24  1  0
  6 25  1  0
  8 26  1  0
  9 27  1  0
 10 28  1  0
 11 29  1  0
 17 30  1  0
 18 31  1  0
M  RAD  1  14   3
M  END
$$$$
