
     RDKit          3D

 31 32  0  0  0  0  0  0  0  0999 V2000
    4.6347   -0.7895    1.1676 C   0  0  0  0  0  0  0  0  0  0  0  0
    3.3431   -0.2645    0.6146 C   0  0  0  0  0  0  0  0  0  0  0  0
    3.1197   -0.2535   -0.7703 C   0  0  0  0  0  0  0  0  0  0  0  0
    1.9015    0.1999   -1.2848 C   0  0  0  0  0  0  0  0  0  0  0  0
    0.8853    0.6389   -0.4203 C   0  0  0  0  0  0  0  0  0  0  0  0
   -0.4369    1.1136   -0.9704 C   0  0  0  0  0  0  0  0  0  0  0  0
   -1.5450    0.1246   -0.6653 C   0  0  0  0  0  0  0  0  0  0  0  0
   -1.4060   -1.1900   -1.1524 C   0  0  0  0  0  0  0  0  0  0  0  0
   -2.3802   -2.1548   -0.8985 C   0  0  0  0  0  0  0  0  0  0  0  0
   -3.5156   -1.8226   -0.1646 C   0  0  0  0  0  0  0  0  0  0  0  0
   -3.6873   -0.5214    0.3076 C   0  0  0  0  0  0  0  0  0  0  0  0
   -2.7199    0.4687    0.0600 C   0  0  0  0  0  0  0  0  0  0  0  0
   -3.0383    2.1141    0.6391 S   0  0  0  0  0  0  0  0  0  0  0  0
   -1.8468    2.5734    1.8021 N   0  0  0  0  0  1  0  0  0  0  0  0
   -3.0143    3.0709   -0.5197 O   0  0  0  0  0  0  0  0  0  0  0  0
   -4.3917    2.1869    1.2892 O   0  0  0  0  0  0  0  0  0  0  0  0
    1.1031    0.6063    0.9664 C   0  0  0  0  0  0  0  0  0  0  0  0
    2.3213    0.1528    1.4803 C   0  0  0  0  0  0  0  0  0  0  0  0
    5.4705   -0.5958    0.4619 H   0  0  0  0  0  0  0  0  0  0  0  0
    4.8781   -0.2943    2.1318 H   0  0  0  0  0  0  0  0  0  0  0  0
    4.5473   -1.8834    1.3341 H   0  0  0  0  0  0  0  0  0  0  0  0
    3.8880   -0.5968   -1.4521 H   0  0  0  0  0  0  0  0  0  0  0  0
    1.7494    0.2013   -2.3570 H   0  0  0  0  0  0  0  0  0  0  0  0
   -0.6312    2.1207   -0.5585 H   0  0  0  0  0  0  0  0  0  0  0  0
   -0.3777    1.2432   -2.0730 H   0  0  0  0  0  0  0  0  0  0  0  0
   -0.5331   -1.4713   -1.7287 H   0  0  0  0  0  0  0  0  0  0  0  0
   -2.2540   -3.1626   -1.2725 H   0  0  0  0  0  0  0  0  0  0  0  0
   -4.2703   -2.5733    0.0319 H   0  0  0  0  0  0  0  0  0  0  0  0
   -4.5864   -0.2893    0.8627 H   0  0  0  0  0  0  0  0  0  0  0  0
    0.3261    0.9222    1.6497 H   0  0  0  0  0  0  0  0  0  0  0  0
    2.4667    0.1257    2.5532 H   0  0  0  0  0  0  0  0  0  0  0  0
  1  2  1  0
  2  3  1  0
  3  4  2  0
  4  5  1  0
  5  6  1  0
  6  7  1  0
  7  8  2  0
  8  9  1  0
  9 10  2  0
 10 11  1  0
 11 12  2  0
 12 13  1  0
 13 14  1  0
 13 15  2  0
 13 16  2  0
  5 17  2  0
 17 18  1  0
 18  2  2  0
 12  7  1  0
  1 19  1  0
  1 20  1  0
  1 21  1  0
  3 22  1  0
  4 23  1  0
  6 24  1  0
  6 25  1  0
  8 26  1  0
  9 27  1  0
 10 28  1  0
 11 29  1  0
 17 30  1  0
 18 31  1  0
M  RAD  1  14   3
M  END
$$$$
