
     RDKit          3D

 31 32  0  0  0  0  0  0  0  0999 V2000
   -4.6985    0.0710   -1.2824 C   0  0  0  0  0  0  0  0  0  0  0  0
   -3.3402   -0.1451   -0.6840 C   0  0  0  0  0  0  0  0  0  0  0  0
   -3.1337    0.0499    0.6898 C   0  0  0  0  0  0  0  0  0  0  0  0
   -1.8769   -0.1858    1.2548 C   0  0  0  0  0  0  0  0  0  0  0  0
   -0.8126   -0.6347    0.4558 C   0  0  0  0  0  0  0  0  0  0  0  0
    0.5492   -0.8766    1.0585 C   0  0  0  0  0  0  0  0  0  0  0  0
    1.5495    0.1612    0.5878 C   0  0  0  0  0  0  0  0  0  0  0  0
    1.2711    1.5147    0.8618 C   0  0  0  0  0  0  0  0  0  0  0  0
    2.1406    2.5230    0.4473 C   0  0  0  0  0  0  0  0  0  0  0  0
    3.3085    2.1984   -0.2373 C   0  0  0  0  0  0  0  0  0  0  0  0
    3.6178    0.8636   -0.4991 C   0  0  0  0  0  0  0  0  0  0  0  0
    2.7579   -0.1697   -0.0868 C   0  0  0  0  0  0  0  0  0  0  0  0
    3.2494   -1.8441   -0.4015 S   0  0  0  0  0  0  0  0  0  0  0  0
    2.1187   -2.6034   -1.4637 N   0  0  0  0  0  1  0  0  0  0  0  0
    4.6065   -1.8781   -1.0470 O   0  0  0  0  0  0  0  0  0  0  0  0
    3.3190   -2.6021    0.8944 O   0  0  0  0  0  0  0  0  0  0  0  0
   -1.0253   -0.8430   -0.9162 C   0  0  0  0  0  0  0  0  0  0  0  0
   -2.2821   -0.6072   -1.4807 C   0  0  0  0  0  0  0  0  0  0  0  0
   -5.2811   -0.8720   -1.2256 H   0  0  0  0  0  0  0  0  0  0  0  0
   -5.2453    0.8685   -0.7354 H   0  0  0  0  0  0  0  0  0  0  0  0
   -4.6134    0.3811   -2.3458 H   0  0  0  0  0  0  0  0  0  0  0  0
   -3.9449    0.3868    1.3234 H   0  0  0  0  0  0  0  0  0  0  0  0
   -1.7353   -0.0178    2.3152 H   0  0  0  0  0  0  0  0  0  0  0  0
    0.4989   -0.8349    2.1684 H   0  0  0  0  0  0  0  0  0  0  0  0
    0.8494   -1.9106    0.8088 H   0  0  0  0  0  0  0  0  0  0  0  0
    0.3704    1.7915    1.3958 H   0  0  0  0  0  0  0  0  0  0  0  0
    1.9077    3.5588    0.6581 H   0  0  0  0  0  0  0  0  0  0  0  0
    3.9817    2.9826   -0.5587 H   0  0  0  0  0  0  0  0  0  0  0  0
    4.5394    0.6412   -1.0204 H   0  0  0  0  0  0  0  0  0  0  0  0
   -0.2175   -1.1850   -1.5494 H   0  0  0  0  0  0  0  0  0  0  0  0
   -2.4290   -0.7821   -2.5394 H   0  0  0  0  0  0  0  0  0  0  0  0
  1  2  1  0
  2  3  1  0
  3  4  2  0
  4  5  1  0
  5  6  1  0
  6  7  1  0
  7  8  2  0
  8  9  1  0
  9 10  2  0
 10 11  1  0
 11 12  2  0
 12 13  1  0
 13 14  1  0
 13 15  2  0
 13 16  2  0
  5 17  2  0
 17 18  1  0
 18  2  2  0
 12  7  1  0
  1 19  1  0
  1 20  1  0
  1 21  1  0
  3 22  1  0
  4 23  1  0
  6 24  1  0
  6 25  1  0
  8 26  1  0
  9 27  1  0
 10 28  1  0
 11 29  1  0
 17 30  1  0
 18 31  1  0
M  RAD  1  14   3
M  END
$$$$
