
     RDKit          3D

 31 32  0  0  0  0  0  0  0  0999 V2000
   -4.5855    0.8931    0.5663 C   0  0  0  0  0  0  0  0  0  0  0  0
   -3.2235    0.4608    0.1106 C   0  0  0  0  0  0  0  0  0  0  0  0
   -2.8809   -0.8992    0.0991 C   0  0  0  0  0  0  0  0  0  0  0  0
   -1.6247   -1.3064   -0.3594 C   0  0  0  0  0  0  0  0  0  0  0  0
   -0.6903   -0.3588   -0.8092 C   0  0  0  0  0  0  0  0  0  0  0  0
    0.6529   -0.8064   -1.3302 C   0  0  0  0  0  0  0  0  0  0  0  0
    1.7989   -0.0449   -0.6938 C   0  0  0  0  0  0  0  0  0  0  0  0
    2.4443    0.9420   -1.4641 C   0  0  0  0  0  0  0  0  0  0  0  0
    3.4927    1.6923   -0.9330 C   0  0  0  0  0  0  0  0  0  0  0  0
    3.9115    1.4756    0.3766 C   0  0  0  0  0  0  0  0  0  0  0  0
    3.2841    0.5075    1.1606 C   0  0  0  0  0  0  0  0  0  0  0  0
    2.2300   -0.2665    0.6445 C   0  0  0  0  0  0  0  0  0  0  0  0
    1.4679   -1.4583    1.7159 S   0  0  0  0  0  0  0  0  0  0  0  0
    2.4308   -1.6929    3.1323 N   0  0  0  0  0  1  0  0  0  0  0  0
    0.1132   -0.9652    2.1372 O   0  0  0  0  0  0  0  0  0  0  0  0
    1.3343   -2.7850    1.0244 O   0  0  0  0  0  0  0  0  0  0  0  0
   -1.0528    0.9989   -0.8369 C   0  0  0  0  0  0  0  0  0  0  0  0
   -2.3091    1.4052   -0.3785 C   0  0  0  0  0  0  0  0  0  0  0  0
   -4.9722    0.2075    1.3501 H   0  0  0  0  0  0  0  0  0  0  0  0
   -4.5484    1.9175    0.9945 H   0  0  0  0  0  0  0  0  0  0  0  0
   -5.2830    0.8865   -0.2972 H   0  0  0  0  0  0  0  0  0  0  0  0
   -3.5865   -1.6450    0.4439 H   0  0  0  0  0  0  0  0  0  0  0  0
   -1.3802   -2.3613   -0.3575 H   0  0  0  0  0  0  0  0  0  0  0  0
    0.8024   -1.8947   -1.1870 H   0  0  0  0  0  0  0  0  0  0  0  0
    0.6526   -0.6619   -2.4325 H   0  0  0  0  0  0  0  0  0  0  0  0
    2.1311    1.1379   -2.4823 H   0  0  0  0  0  0  0  0  0  0  0  0
    3.9783    2.4473   -1.5377 H   0  0  0  0  0  0  0  0  0  0  0  0
    4.7221    2.0630    0.7885 H   0  0  0  0  0  0  0  0  0  0  0  0
    3.6240    0.3714    2.1782 H   0  0  0  0  0  0  0  0  0  0  0  0
   -0.3643    1.7437   -1.2153 H   0  0  0  0  0  0  0  0  0  0  0  0
   -2.5697    2.4560   -0.4080 H   0  0  0  0  0  0  0  0  0  0  0  0
  1  2  1  0
  2  3  1  0
  3  4  2  0
  4  5  1  0
  5  6  1  0
  6  7  1  0
  7  8  2  0
  8  9  1  0
  9 10  2  0
 10 11  1  0
 11 12  2  0
 12 13  1  0
 13 14  1  0
 13 15  2  0
 13 16  2  0
  5 17  2  0
 17 18  1  0
 18  2  2  0
 12  7  1  0
  1 19  1  0
  1 20  1  0
  1 21  1  0
  3 22  1  0
  4 23  1  0
  6 24  1  0
  6 25  1  0
  8 26  1  0
  9 27  1  0
 10 28  1  0
 11 29  1  0
 17 30  1  0
 18 31  1  0
M  RAD  1  14   3
M  END
$$$$
