
     RDKit          3D

 31 32  0  0  0  0  0  0  0  0999 V2000
    4.7725   -0.7223    0.2988 C   0  0  0  0  0  0  0  0  0  0  0  0
    3.3986   -0.1668    0.0677 C   0  0  0  0  0  0  0  0  0  0  0  0
    2.9842    0.1782   -1.2274 C   0  0  0  0  0  0  0  0  0  0  0  0
    1.6909    0.6601   -1.4494 C   0  0  0  0  0  0  0  0  0  0  0  0
    0.7900    0.7937   -0.3801 C   0  0  0  0  0  0  0  0  0  0  0  0
   -0.6119    1.2978   -0.6177 C   0  0  0  0  0  0  0  0  0  0  0  0
   -1.6308    0.1884   -0.4438 C   0  0  0  0  0  0  0  0  0  0  0  0
   -1.5142   -0.9472   -1.2693 C   0  0  0  0  0  0  0  0  0  0  0  0
   -2.4086   -2.0109   -1.1549 C   0  0  0  0  0  0  0  0  0  0  0  0
   -3.4418   -1.9558   -0.2235 C   0  0  0  0  0  0  0  0  0  0  0  0
   -3.5923   -0.8316    0.5884 C   0  0  0  0  0  0  0  0  0  0  0  0
   -2.7048    0.2544    0.4874 C   0  0  0  0  0  0  0  0  0  0  0  0
   -2.9980    1.6735    1.5095 S   0  0  0  0  0  0  0  0  0  0  0  0
   -1.6732    1.9065    2.5931 N   0  0  0  0  0  1  0  0  0  0  0  0
   -3.1697    2.8913    0.6458 O   0  0  0  0  0  0  0  0  0  0  0  0
   -4.2493    1.4841    2.3206 O   0  0  0  0  0  0  0  0  0  0  0  0
    1.1998    0.4271    0.9117 C   0  0  0  0  0  0  0  0  0  0  0  0
    2.4931   -0.0547    1.1332 C   0  0  0  0  0  0  0  0  0  0  0  0
    5.4945   -0.2982   -0.4313 H   0  0  0  0  0  0  0  0  0  0  0  0
    4.7483   -1.8261    0.1847 H   0  0  0  0  0  0  0  0  0  0  0  0
    5.1300   -0.4712    1.3202 H   0  0  0  0  0  0  0  0  0  0  0  0
    3.6619    0.0732   -2.0657 H   0  0  0  0  0  0  0  0  0  0  0  0
    1.3910    0.9218   -2.4565 H   0  0  0  0  0  0  0  0  0  0  0  0
   -0.7116    1.7058   -1.6471 H   0  0  0  0  0  0  0  0  0  0  0  0
   -0.7828    2.1518    0.0628 H   0  0  0  0  0  0  0  0  0  0  0  0
   -0.7206   -1.0116   -2.0036 H   0  0  0  0  0  0  0  0  0  0  0  0
   -2.2998   -2.8800   -1.7908 H   0  0  0  0  0  0  0  0  0  0  0  0
   -4.1345   -2.7828   -0.1360 H   0  0  0  0  0  0  0  0  0  0  0  0
   -4.4131   -0.8112    1.2929 H   0  0  0  0  0  0  0  0  0  0  0  0
    0.5148    0.5045    1.7455 H   0  0  0  0  0  0  0  0  0  0  0  0
    2.7874   -0.3418    2.1351 H   0  0  0  0  0  0  0  0  0  0  0  0
  1  2  1  0
  2  3  1  0
  3  4  2  0
  4  5  1  0
  5  6  1  0
  6  7  1  0
  7  8  2  0
  8  9  1  0
  9 10  2  0
 10 11  1  0
 11 12  2  0
 12 13  1  0
 13 14  1  0
 13 15  2  0
 13 16  2  0
  5 17  2  0
 17 18  1  0
 18  2  2  0
 12  7  1  0
  1 19  1  0
  1 20  1  0
  1 21  1  0
  3 22  1  0
  4 23  1  0
  6 24  1  0
  6 25  1  0
  8 26  1  0
  9 27  1  0
 10 28  1  0
 11 29  1  0
 17 30  1  0
 18 31  1  0
M  RAD  1  14   3
M  END
$$$$
