
     RDKit          3D

 31 32  0  0  0  0  0  0  0  0999 V2000
    4.5777    0.8983   -0.3833 C   0  0  0  0  0  0  0  0  0  0  0  0
    3.1975    0.5244    0.0693 C   0  0  0  0  0  0  0  0  0  0  0  0
    2.5463   -0.5845   -0.4906 C   0  0  0  0  0  0  0  0  0  0  0  0
    1.2748   -0.9554   -0.0443 C   0  0  0  0  0  0  0  0  0  0  0  0
    0.6332   -0.2196    0.9669 C   0  0  0  0  0  0  0  0  0  0  0  0
   -0.7265   -0.6330    1.4731 C   0  0  0  0  0  0  0  0  0  0  0  0
   -1.7347   -0.7875    0.3516 C   0  0  0  0  0  0  0  0  0  0  0  0
   -2.0917   -2.0924   -0.0402 C   0  0  0  0  0  0  0  0  0  0  0  0
   -2.9986   -2.3053   -1.0778 C   0  0  0  0  0  0  0  0  0  0  0  0
   -3.5602   -1.2212   -1.7461 C   0  0  0  0  0  0  0  0  0  0  0  0
   -3.2179    0.0803   -1.3796 C   0  0  0  0  0  0  0  0  0  0  0  0
   -2.3118    0.3198   -0.3316 C   0  0  0  0  0  0  0  0  0  0  0  0
   -1.9092    2.0045    0.0543 S   0  0  0  0  0  0  0  0  0  0  0  0
   -3.0134    3.0791   -0.7294 N   0  0  0  0  0  1  0  0  0  0  0  0
   -2.0017    2.2469    1.5338 O   0  0  0  0  0  0  0  0  0  0  0  0
   -0.5204    2.3146   -0.4264 O   0  0  0  0  0  0  0  0  0  0  0  0
    1.3064    0.8639    1.5554 C   0  0  0  0  0  0  0  0  0  0  0  0
    2.5779    1.2342    1.1083 C   0  0  0  0  0  0  0  0  0  0  0  0
    4.7450    1.9905   -0.2682 H   0  0  0  0  0  0  0  0  0  0  0  0
    4.7222    0.6401   -1.4540 H   0  0  0  0  0  0  0  0  0  0  0  0
    5.3269    0.3508    0.2258 H   0  0  0  0  0  0  0  0  0  0  0  0
    3.0241   -1.1643   -1.2708 H   0  0  0  0  0  0  0  0  0  0  0  0
    0.7924   -1.8179   -0.4863 H   0  0  0  0  0  0  0  0  0  0  0  0
   -0.6048   -1.5913    2.0234 H   0  0  0  0  0  0  0  0  0  0  0  0
   -1.1135    0.0800    2.2277 H   0  0  0  0  0  0  0  0  0  0  0  0
   -1.6614   -2.9535    0.4563 H   0  0  0  0  0  0  0  0  0  0  0  0
   -3.2625   -3.3144   -1.3672 H   0  0  0  0  0  0  0  0  0  0  0  0
   -4.2598   -1.3890   -2.5549 H   0  0  0  0  0  0  0  0  0  0  0  0
   -3.6616    0.9013   -1.9261 H   0  0  0  0  0  0  0  0  0  0  0  0
    0.8456    1.4271    2.3574 H   0  0  0  0  0  0  0  0  0  0  0  0
    3.0796    2.0738    1.5735 H   0  0  0  0  0  0  0  0  0  0  0  0
  1  2  1  0
  2  3  1  0
  3  4  2  0
  4  5  1  0
  5  6  1  0
  6  7  1  0
  7  8  2  0
  8  9  1  0
  9 10  2  0
 10 11  1  0
 11 12  2  0
 12 13  1  0
 13 14  1  0
 13 15  2  0
 13 16  2  0
  5 17  2  0
 17 18  1  0
 18  2  2  0
 12  7  1  0
  1 19  1  0
  1 20  1  0
  1 21  1  0
  3 22  1  0
  4 23  1  0
  6 24  1  0
  6 25  1  0
  8 26  1  0
  9 27  1  0
 10 28  1  0
 11 29  1  0
 17 30  1  0
 18 31  1  0
M  RAD  1  14   3
M  END
$$$$
