
     RDKit          3D

 31 32  0  0  0  0  0  0  0  0999 V2000
    3.9572   -1.0807    1.4057 C   0  0  0  0  0  0  0  0  0  0  0  0
    2.9665   -0.2131    0.6876 C   0  0  0  0  0  0  0  0  0  0  0  0
    3.0417    1.1834    0.7948 C   0  0  0  0  0  0  0  0  0  0  0  0
    2.1004    1.9894    0.1506 C   0  0  0  0  0  0  0  0  0  0  0  0
    1.0659    1.4087   -0.5867 C   0  0  0  0  0  0  0  0  0  0  0  0
    0.9514    0.0104   -0.6694 C   0  0  0  0  0  0  0  0  0  0  0  0
   -0.1550   -0.6217   -1.4770 C   0  0  0  0  0  0  0  0  0  0  0  0
   -1.5243   -0.1141   -1.0702 C   0  0  0  0  0  0  0  0  0  0  0  0
   -2.1698    0.8003   -1.9252 C   0  0  0  0  0  0  0  0  0  0  0  0
   -3.4219    1.3215   -1.6015 C   0  0  0  0  0  0  0  0  0  0  0  0
   -4.0490    0.9447   -0.4175 C   0  0  0  0  0  0  0  0  0  0  0  0
   -3.4271    0.0448    0.4478 C   0  0  0  0  0  0  0  0  0  0  0  0
   -2.1683   -0.5002    0.1392 C   0  0  0  0  0  0  0  0  0  0  0  0
   -1.4348   -1.6167    1.3073 S   0  0  0  0  0  0  0  0  0  0  0  0
   -2.6092   -2.1225    2.4706 N   0  0  0  0  0  1  0  0  0  0  0  0
   -0.3142   -0.9262    2.0308 O   0  0  0  0  0  0  0  0  0  0  0  0
   -0.9140   -2.8440    0.6153 O   0  0  0  0  0  0  0  0  0  0  0  0
    1.9169   -0.7949   -0.0407 C   0  0  0  0  0  0  0  0  0  0  0  0
    3.5679   -1.3263    2.4157 H   0  0  0  0  0  0  0  0  0  0  0  0
    4.1297   -2.0238    0.8445 H   0  0  0  0  0  0  0  0  0  0  0  0
    4.9331   -0.5603    1.5099 H   0  0  0  0  0  0  0  0  0  0  0  0
    3.8320    1.6481    1.3714 H   0  0  0  0  0  0  0  0  0  0  0  0
    2.1723    3.0669    0.2234 H   0  0  0  0  0  0  0  0  0  0  0  0
    0.3511    2.0496   -1.0871 H   0  0  0  0  0  0  0  0  0  0  0  0
   -0.1300   -1.7271   -1.4078 H   0  0  0  0  0  0  0  0  0  0  0  0
    0.0407   -0.4003   -2.5487 H   0  0  0  0  0  0  0  0  0  0  0  0
   -1.6993    1.1183   -2.8475 H   0  0  0  0  0  0  0  0  0  0  0  0
   -3.9048    2.0236   -2.2691 H   0  0  0  0  0  0  0  0  0  0  0  0
   -5.0186    1.3549   -0.1657 H   0  0  0  0  0  0  0  0  0  0  0  0
   -3.9340   -0.2185    1.3661 H   0  0  0  0  0  0  0  0  0  0  0  0
    1.8472   -1.8741   -0.1084 H   0  0  0  0  0  0  0  0  0  0  0  0
  1  2  1  0
  2  3  1  0
  3  4  2  0
  4  5  1  0
  5  6  2  0
  6  7  1  0
  7  8  1  0
  8  9  2  0
  9 10  1  0
 10 11  2  0
 11 12  1  0
 12 13  2  0
 13 14  1  0
 14 15  1  0
 14 16  2  0
 14 17  2  0
  6 18  1  0
 18  2  2  0
 13  8  1  0
  1 19  1  0
  1 20  1  0
  1 21  1  0
  3 22  1  0
  4 23  1  0
  5 24  1  0
  7 25  1  0
  7 26  1  0
  9 27  1  0
 10 28  1  0
 11 29  1  0
 12 30  1  0
 18 31  1  0
M  RAD  1  15   3
M  END
$$$$
