
     RDKit          3D

 31 32  0  0  0  0  0  0  0  0999 V2000
    3.7761   -0.6625   -1.9833 C   0  0  0  0  0  0  0  0  0  0  0  0
    2.8852   -0.4011   -0.8052 C   0  0  0  0  0  0  0  0  0  0  0  0
    3.2199   -0.9064    0.4597 C   0  0  0  0  0  0  0  0  0  0  0  0
    2.4125   -0.6266    1.5645 C   0  0  0  0  0  0  0  0  0  0  0  0
    1.2692    0.1622    1.4170 C   0  0  0  0  0  0  0  0  0  0  0  0
    0.9166    0.6723    0.1558 C   0  0  0  0  0  0  0  0  0  0  0  0
   -0.2967    1.5547   -0.0020 C   0  0  0  0  0  0  0  0  0  0  0  0
   -1.5521    0.9075    0.5486 C   0  0  0  0  0  0  0  0  0  0  0  0
   -2.0509    1.3764    1.7795 C   0  0  0  0  0  0  0  0  0  0  0  0
   -3.1903    0.8121    2.3518 C   0  0  0  0  0  0  0  0  0  0  0  0
   -3.8482   -0.2331    1.7098 C   0  0  0  0  0  0  0  0  0  0  0  0
   -3.3699   -0.7181    0.4927 C   0  0  0  0  0  0  0  0  0  0  0  0
   -2.2276   -0.1599   -0.1076 C   0  0  0  0  0  0  0  0  0  0  0  0
   -1.6698   -0.8537   -1.6428 S   0  0  0  0  0  0  0  0  0  0  0  0
   -2.8879   -1.8807   -2.3134 N   0  0  0  0  0  1  0  0  0  0  0  0
   -1.3799    0.2298   -2.6419 O   0  0  0  0  0  0  0  0  0  0  0  0
   -0.4331   -1.6727   -1.4070 O   0  0  0  0  0  0  0  0  0  0  0  0
    1.7473    0.4083   -0.9470 C   0  0  0  0  0  0  0  0  0  0  0  0
    4.5293    0.1489   -2.0637 H   0  0  0  0  0  0  0  0  0  0  0  0
    3.1820   -0.7005   -2.9212 H   0  0  0  0  0  0  0  0  0  0  0  0
    4.3014   -1.6349   -1.8708 H   0  0  0  0  0  0  0  0  0  0  0  0
    4.1077   -1.5126    0.5915 H   0  0  0  0  0  0  0  0  0  0  0  0
    2.6771   -1.0164    2.5389 H   0  0  0  0  0  0  0  0  0  0  0  0
    0.6620    0.3780    2.2869 H   0  0  0  0  0  0  0  0  0  0  0  0
   -0.4571    1.8421   -1.0598 H   0  0  0  0  0  0  0  0  0  0  0  0
   -0.0886    2.5121    0.5235 H   0  0  0  0  0  0  0  0  0  0  0  0
   -1.5520    2.1814    2.3051 H   0  0  0  0  0  0  0  0  0  0  0  0
   -3.5609    1.1835    3.2985 H   0  0  0  0  0  0  0  0  0  0  0  0
   -4.7293   -0.6733    2.1588 H   0  0  0  0  0  0  0  0  0  0  0  0
   -3.8955   -1.5394    0.0249 H   0  0  0  0  0  0  0  0  0  0  0  0
    1.5035    0.8225   -1.9182 H   0  0  0  0  0  0  0  0  0  0  0  0
  1  2  1  0
  2  3  1  0
  3  4  2  0
  4  5  1  0
  5  6  2  0
  6  7  1  0
  7  8  1  0
  8  9  2  0
  9 10  1  0
 10 11  2  0
 11 12  1  0
 12 13  2  0
 13 14  1  0
 14 15  1  0
 14 16  2  0
 14 17  2  0
  6 18  1  0
 18  2  2  0
 13  8  1  0
  1 19  1  0
  1 20  1  0
  1 21  1  0
  3 22  1  0
  4 23  1  0
  5 24  1  0
  7 25  1  0
  7 26  1  0
  9 27  1  0
 10 28  1  0
 11 29  1  0
 12 30  1  0
 18 31  1  0
M  RAD  1  15   3
M  END
$$$$
