
     RDKit          3D

 31 32  0  0  0  0  0  0  0  0999 V2000
   -4.1438    1.0932    0.6757 C   0  0  0  0  0  0  0  0  0  0  0  0
   -3.0383    0.1656    0.2667 C   0  0  0  0  0  0  0  0  0  0  0  0
   -3.0779   -1.1871    0.6355 C   0  0  0  0  0  0  0  0  0  0  0  0
   -2.0332   -2.0433    0.2803 C   0  0  0  0  0  0  0  0  0  0  0  0
   -0.9324   -1.5527   -0.4257 C   0  0  0  0  0  0  0  0  0  0  0  0
   -0.8570   -0.1912   -0.7661 C   0  0  0  0  0  0  0  0  0  0  0  0
    0.3224    0.3408   -1.5419 C   0  0  0  0  0  0  0  0  0  0  0  0
    1.6439    0.0021   -0.8809 C   0  0  0  0  0  0  0  0  0  0  0  0
    2.4269   -1.0179   -1.4557 C   0  0  0  0  0  0  0  0  0  0  0  0
    3.6436   -1.3928   -0.8871 C   0  0  0  0  0  0  0  0  0  0  0  0
    4.0976   -0.7614    0.2673 C   0  0  0  0  0  0  0  0  0  0  0  0
    3.3371    0.2477    0.8577 C   0  0  0  0  0  0  0  0  0  0  0  0
    2.1110    0.6483    0.2983 C   0  0  0  0  0  0  0  0  0  0  0  0
    1.1931    1.9207    1.1276 S   0  0  0  0  0  0  0  0  0  0  0  0
    2.1875    2.7070    2.3028 N   0  0  0  0  0  1  0  0  0  0  0  0
    0.7243    2.9610    0.1508 O   0  0  0  0  0  0  0  0  0  0  0  0
    0.0126    1.3146    1.8313 O   0  0  0  0  0  0  0  0  0  0  0  0
   -1.9237    0.6599   -0.4289 C   0  0  0  0  0  0  0  0  0  0  0  0
   -4.2745    1.9006   -0.0760 H   0  0  0  0  0  0  0  0  0  0  0  0
   -5.1062    0.5449    0.7609 H   0  0  0  0  0  0  0  0  0  0  0  0
   -3.8983    1.5487    1.6577 H   0  0  0  0  0  0  0  0  0  0  0  0
   -3.9199   -1.5801    1.1919 H   0  0  0  0  0  0  0  0  0  0  0  0
   -2.0763   -3.0897    0.5535 H   0  0  0  0  0  0  0  0  0  0  0  0
   -0.1366   -2.2332   -0.7006 H   0  0  0  0  0  0  0  0  0  0  0  0
    0.2500    1.4358   -1.6941 H   0  0  0  0  0  0  0  0  0  0  0  0
    0.2758   -0.0913   -2.5652 H   0  0  0  0  0  0  0  0  0  0  0  0
    2.0919   -1.5326   -2.3479 H   0  0  0  0  0  0  0  0  0  0  0  0
    4.2335   -2.1788   -1.3408 H   0  0  0  0  0  0  0  0  0  0  0  0
    5.0398   -1.0580    0.7100 H   0  0  0  0  0  0  0  0  0  0  0  0
    3.7106    0.7102    1.7612 H   0  0  0  0  0  0  0  0  0  0  0  0
   -1.8835    1.7088   -0.6976 H   0  0  0  0  0  0  0  0  0  0  0  0
  1  2  1  0
  2  3  1  0
  3  4  2  0
  4  5  1  0
  5  6  2  0
  6  7  1  0
  7  8  1  0
  8  9  2  0
  9 10  1  0
 10 11  2  0
 11 12  1  0
 12 13  2  0
 13 14  1  0
 14 15  1  0
 14 16  2  0
 14 17  2  0
  6 18  1  0
 18  2  2  0
 13  8  1  0
  1 19  1  0
  1 20  1  0
  1 21  1  0
  3 22  1  0
  4 23  1  0
  5 24  1  0
  7 25  1  0
  7 26  1  0
  9 27  1  0
 10 28  1  0
 11 29  1  0
 12 30  1  0
 18 31  1  0
M  RAD  1  15   3
M  END
$$$$
