
     RDKit          3D

 31 32  0  0  0  0  0  0  0  0999 V2000
    3.9155    1.8223    0.6797 C   0  0  0  0  0  0  0  0  0  0  0  0
    2.9290    0.6969    0.5787 C   0  0  0  0  0  0  0  0  0  0  0  0
    3.1030   -0.4661    1.3431 C   0  0  0  0  0  0  0  0  0  0  0  0
    2.2080   -1.5308    1.2167 C   0  0  0  0  0  0  0  0  0  0  0  0
    1.1365   -1.4453    0.3247 C   0  0  0  0  0  0  0  0  0  0  0  0
    0.9446   -0.2853   -0.4452 C   0  0  0  0  0  0  0  0  0  0  0  0
   -0.1896   -0.2025   -1.4365 C   0  0  0  0  0  0  0  0  0  0  0  0
   -1.5316   -0.5030   -0.7990 C   0  0  0  0  0  0  0  0  0  0  0  0
   -2.1212   -1.7551   -1.0611 C   0  0  0  0  0  0  0  0  0  0  0  0
   -3.3451   -2.1033   -0.4911 C   0  0  0  0  0  0  0  0  0  0  0  0
   -3.9990   -1.2120    0.3546 C   0  0  0  0  0  0  0  0  0  0  0  0
   -3.4323    0.0315    0.6335 C   0  0  0  0  0  0  0  0  0  0  0  0
   -2.2031    0.4081    0.0643 C   0  0  0  0  0  0  0  0  0  0  0  0
   -1.5384    1.9969    0.4926 S   0  0  0  0  0  0  0  0  0  0  0  0
   -2.7447    2.9607    1.2699 N   0  0  0  0  0  1  0  0  0  0  0  0
   -0.3849    1.8232    1.4388 O   0  0  0  0  0  0  0  0  0  0  0  0
   -1.0830    2.7316   -0.7358 O   0  0  0  0  0  0  0  0  0  0  0  0
    1.8636    0.7723   -0.3321 C   0  0  0  0  0  0  0  0  0  0  0  0
    4.7220    1.6744   -0.0684 H   0  0  0  0  0  0  0  0  0  0  0  0
    3.4173    2.7966    0.4885 H   0  0  0  0  0  0  0  0  0  0  0  0
    4.3653    1.8609    1.6947 H   0  0  0  0  0  0  0  0  0  0  0  0
    3.9337   -0.5506    2.0329 H   0  0  0  0  0  0  0  0  0  0  0  0
    2.3488   -2.4272    1.8067 H   0  0  0  0  0  0  0  0  0  0  0  0
    0.4598   -2.2852    0.2318 H   0  0  0  0  0  0  0  0  0  0  0  0
   -0.2249    0.7868   -1.9339 H   0  0  0  0  0  0  0  0  0  0  0  0
    0.0240   -0.9239   -2.2550 H   0  0  0  0  0  0  0  0  0  0  0  0
   -1.6284   -2.4713   -1.7072 H   0  0  0  0  0  0  0  0  0  0  0  0
   -3.7849   -3.0696   -0.7023 H   0  0  0  0  0  0  0  0  0  0  0  0
   -4.9464   -1.4868    0.8003 H   0  0  0  0  0  0  0  0  0  0  0  0
   -3.9584    0.6969    1.3044 H   0  0  0  0  0  0  0  0  0  0  0  0
    1.7447    1.6589   -0.9436 H   0  0  0  0  0  0  0  0  0  0  0  0
  1  2  1  0
  2  3  1  0
  3  4  2  0
  4  5  1  0
  5  6  2  0
  6  7  1  0
  7  8  1  0
  8  9  2  0
  9 10  1  0
 10 11  2  0
 11 12  1  0
 12 13  2  0
 13 14  1  0
 14 15  1  0
 14 16  2  0
 14 17  2  0
  6 18  1  0
 18  2  2  0
 13  8  1  0
  1 19  1  0
  1 20  1  0
  1 21  1  0
  3 22  1  0
  4 23  1  0
  5 24  1  0
  7 25  1  0
  7 26  1  0
  9 27  1  0
 10 28  1  0
 11 29  1  0
 12 30  1  0
 18 31  1  0
M  RAD  1  15   3
M  END
$$$$
