
     RDKit          3D

 31 32  0  0  0  0  0  0  0  0999 V2000
    4.3608   -1.1598   -0.6403 C   0  0  0  0  0  0  0  0  0  0  0  0
    3.1940   -0.3670   -0.1301 C   0  0  0  0  0  0  0  0  0  0  0  0
    3.2853    0.3183    1.0906 C   0  0  0  0  0  0  0  0  0  0  0  0
    2.2098    1.0822    1.5501 C   0  0  0  0  0  0  0  0  0  0  0  0
    1.0424    1.1799    0.7893 C   0  0  0  0  0  0  0  0  0  0  0  0
    0.9439    0.5192   -0.4455 C   0  0  0  0  0  0  0  0  0  0  0  0
   -0.3211    0.6217   -1.2614 C   0  0  0  0  0  0  0  0  0  0  0  0
   -1.4587   -0.1379   -0.6070 C   0  0  0  0  0  0  0  0  0  0  0  0
   -1.2852   -1.5178   -0.3825 C   0  0  0  0  0  0  0  0  0  0  0  0
   -2.2849   -2.2759    0.2261 C   0  0  0  0  0  0  0  0  0  0  0  0
   -3.4797   -1.6737    0.6105 C   0  0  0  0  0  0  0  0  0  0  0  0
   -3.6847   -0.3140    0.3764 C   0  0  0  0  0  0  0  0  0  0  0  0
   -2.6923    0.4689   -0.2397 C   0  0  0  0  0  0  0  0  0  0  0  0
   -3.0511    2.1756   -0.5603 S   0  0  0  0  0  0  0  0  0  0  0  0
   -1.9688    3.1853    0.3298 N   0  0  0  0  0  1  0  0  0  0  0  0
   -4.4582    2.5013   -0.1435 O   0  0  0  0  0  0  0  0  0  0  0  0
   -2.9135    2.4531   -2.0309 O   0  0  0  0  0  0  0  0  0  0  0  0
    2.0269   -0.2517   -0.9018 C   0  0  0  0  0  0  0  0  0  0  0  0
    4.9591   -1.5654    0.2033 H   0  0  0  0  0  0  0  0  0  0  0  0
    4.0123   -2.0163   -1.2560 H   0  0  0  0  0  0  0  0  0  0  0  0
    5.0077   -0.5061   -1.2617 H   0  0  0  0  0  0  0  0  0  0  0  0
    4.1869    0.2586    1.6877 H   0  0  0  0  0  0  0  0  0  0  0  0
    2.2816    1.6005    2.4975 H   0  0  0  0  0  0  0  0  0  0  0  0
    0.2156    1.7691    1.1628 H   0  0  0  0  0  0  0  0  0  0  0  0
   -0.1642    0.2064   -2.2807 H   0  0  0  0  0  0  0  0  0  0  0  0
   -0.5441    1.6948   -1.4044 H   0  0  0  0  0  0  0  0  0  0  0  0
   -0.3658   -2.0094   -0.6761 H   0  0  0  0  0  0  0  0  0  0  0  0
   -2.1321   -3.3333    0.3995 H   0  0  0  0  0  0  0  0  0  0  0  0
   -4.2541   -2.2639    1.0834 H   0  0  0  0  0  0  0  0  0  0  0  0
   -4.6289    0.1231    0.6729 H   0  0  0  0  0  0  0  0  0  0  0  0
    1.9610   -0.7656   -1.8535 H   0  0  0  0  0  0  0  0  0  0  0  0
  1  2  1  0
  2  3  1  0
  3  4  2  0
  4  5  1  0
  5  6  2  0
  6  7  1  0
  7  8  1  0
  8  9  2  0
  9 10  1  0
 10 11  2  0
 11 12  1  0
 12 13  2  0
 13 14  1  0
 14 15  1  0
 14 16  2  0
 14 17  2  0
  6 18  1  0
 18  2  2  0
 13  8  1  0
  1 19  1  0
  1 20  1  0
  1 21  1  0
  3 22  1  0
  4 23  1  0
  5 24  1  0
  7 25  1  0
  7 26  1  0
  9 27  1  0
 10 28  1  0
 11 29  1  0
 12 30  1  0
 18 31  1  0
M  RAD  1  15   3
M  END
$$$$
