
     RDKit          3D

 31 32  0  0  0  0  0  0  0  0999 V2000
    4.4848   -0.4606    0.5022 C   0  0  0  0  0  0  0  0  0  0  0  0
    3.1816    0.2820    0.4871 C   0  0  0  0  0  0  0  0  0  0  0  0
    2.9607    1.3390    1.3825 C   0  0  0  0  0  0  0  0  0  0  0  0
    1.7318    2.0031    1.3969 C   0  0  0  0  0  0  0  0  0  0  0  0
    0.7117    1.6109    0.5272 C   0  0  0  0  0  0  0  0  0  0  0  0
    0.9120    0.5462   -0.3658 C   0  0  0  0  0  0  0  0  0  0  0  0
   -0.2016    0.1073   -1.2844 C   0  0  0  0  0  0  0  0  0  0  0  0
   -1.3161   -0.5699   -0.5107 C   0  0  0  0  0  0  0  0  0  0  0  0
   -0.9935   -1.7182    0.2390 C   0  0  0  0  0  0  0  0  0  0  0  0
   -1.9660   -2.3839    0.9841 C   0  0  0  0  0  0  0  0  0  0  0  0
   -3.2797   -1.9234    0.9853 C   0  0  0  0  0  0  0  0  0  0  0  0
   -3.6288   -0.8031    0.2312 C   0  0  0  0  0  0  0  0  0  0  0  0
   -2.6656   -0.1187   -0.5311 C   0  0  0  0  0  0  0  0  0  0  0  0
   -3.1985    1.2584   -1.5128 S   0  0  0  0  0  0  0  0  0  0  0  0
   -2.4302    2.7063   -0.9679 N   0  0  0  0  0  1  0  0  0  0  0  0
   -4.6867    1.4369   -1.3990 O   0  0  0  0  0  0  0  0  0  0  0  0
   -2.8571    1.0126   -2.9555 O   0  0  0  0  0  0  0  0  0  0  0  0
    2.1487   -0.1218   -0.3738 C   0  0  0  0  0  0  0  0  0  0  0  0
    4.4171   -1.3100    1.2135 H   0  0  0  0  0  0  0  0  0  0  0  0
    4.7232   -0.8529   -0.5094 H   0  0  0  0  0  0  0  0  0  0  0  0
    5.3146    0.2086    0.8146 H   0  0  0  0  0  0  0  0  0  0  0  0
    3.7385    1.6477    2.0701 H   0  0  0  0  0  0  0  0  0  0  0  0
    1.5675    2.8196    2.0882 H   0  0  0  0  0  0  0  0  0  0  0  0
   -0.2375    2.1290    0.5577 H   0  0  0  0  0  0  0  0  0  0  0  0
    0.1788   -0.6067   -2.0470 H   0  0  0  0  0  0  0  0  0  0  0  0
   -0.5439    0.9949   -1.8471 H   0  0  0  0  0  0  0  0  0  0  0  0
    0.0209   -2.0978    0.2509 H   0  0  0  0  0  0  0  0  0  0  0  0
   -1.6997   -3.2596    1.5619 H   0  0  0  0  0  0  0  0  0  0  0  0
   -4.0330   -2.4414    1.5649 H   0  0  0  0  0  0  0  0  0  0  0  0
   -4.6604   -0.4773    0.2402 H   0  0  0  0  0  0  0  0  0  0  0  0
    2.3069   -0.9569   -1.0458 H   0  0  0  0  0  0  0  0  0  0  0  0
  1  2  1  0
  2  3  1  0
  3  4  2  0
  4  5  1  0
  5  6  2  0
  6  7  1  0
  7  8  1  0
  8  9  2  0
  9 10  1  0
 10 11  2  0
 11 12  1  0
 12 13  2  0
 13 14  1  0
 14 15  1  0
 14 16  2  0
 14 17  2  0
  6 18  1  0
 18  2  2  0
 13  8  1  0
  1 19  1  0
  1 20  1  0
  1 21  1  0
  3 22  1  0
  4 23  1  0
  5 24  1  0
  7 25  1  0
  7 26  1  0
  9 27  1  0
 10 28  1  0
 11 29  1  0
 12 30  1  0
 18 31  1  0
M  RAD  1  15   3
M  END
$$$$
