
     RDKit          3D

 31 32  0  0  0  0  0  0  0  0999 V2000
    4.0944   -1.4652   -0.4403 C   0  0  0  0  0  0  0  0  0  0  0  0
    3.0059   -0.4332   -0.4365 C   0  0  0  0  0  0  0  0  0  0  0  0
    3.1324    0.7301   -1.2098 C   0  0  0  0  0  0  0  0  0  0  0  0
    2.1382    1.7104   -1.1726 C   0  0  0  0  0  0  0  0  0  0  0  0
    1.0140    1.5400   -0.3614 C   0  0  0  0  0  0  0  0  0  0  0  0
    0.8690    0.3781    0.4159 C   0  0  0  0  0  0  0  0  0  0  0  0
   -0.3253    0.2059    1.3213 C   0  0  0  0  0  0  0  0  0  0  0  0
   -1.6365    0.3740    0.5793 C   0  0  0  0  0  0  0  0  0  0  0  0
   -2.3544    1.5706    0.7709 C   0  0  0  0  0  0  0  0  0  0  0  0
   -3.5577    1.7979    0.1040 C   0  0  0  0  0  0  0  0  0  0  0  0
   -4.0626    0.8390   -0.7695 C   0  0  0  0  0  0  0  0  0  0  0  0
   -3.3667   -0.3514   -0.9795 C   0  0  0  0  0  0  0  0  0  0  0  0
   -2.1556   -0.6064   -0.3126 C   0  0  0  0  0  0  0  0  0  0  0  0
   -1.3201   -2.1337   -0.6572 S   0  0  0  0  0  0  0  0  0  0  0  0
   -2.3722   -3.2142   -1.5021 N   0  0  0  0  0  1  0  0  0  0  0  0
   -0.8954   -2.8067    0.6167 O   0  0  0  0  0  0  0  0  0  0  0  0
   -0.1182   -1.8686   -1.5181 O   0  0  0  0  0  0  0  0  0  0  0  0
    1.8853   -0.5928    0.3936 C   0  0  0  0  0  0  0  0  0  0  0  0
    4.6218   -1.4767   -1.4179 H   0  0  0  0  0  0  0  0  0  0  0  0
    3.6726   -2.4782   -0.2667 H   0  0  0  0  0  0  0  0  0  0  0  0
    4.8249   -1.2341    0.3627 H   0  0  0  0  0  0  0  0  0  0  0  0
    4.0023    0.8804   -1.8373 H   0  0  0  0  0  0  0  0  0  0  0  0
    2.2424    2.6077   -1.7689 H   0  0  0  0  0  0  0  0  0  0  0  0
    0.2594    2.3158   -0.3367 H   0  0  0  0  0  0  0  0  0  0  0  0
   -0.2404    0.9551    2.1384 H   0  0  0  0  0  0  0  0  0  0  0  0
   -0.3094   -0.7755    1.8350 H   0  0  0  0  0  0  0  0  0  0  0  0
   -1.9786    2.3376    1.4369 H   0  0  0  0  0  0  0  0  0  0  0  0
   -4.0974    2.7228    0.2618 H   0  0  0  0  0  0  0  0  0  0  0  0
   -4.9941    1.0201   -1.2902 H   0  0  0  0  0  0  0  0  0  0  0  0
   -3.7783   -1.0711   -1.6739 H   0  0  0  0  0  0  0  0  0  0  0  0
    1.8003   -1.4780    1.0127 H   0  0  0  0  0  0  0  0  0  0  0  0
  1  2  1  0
  2  3  1  0
  3  4  2  0
  4  5  1  0
  5  6  2  0
  6  7  1  0
  7  8  1  0
  8  9  2  0
  9 10  1  0
 10 11  2  0
 11 12  1  0
 12 13  2  0
 13 14  1  0
 14 15  1  0
 14 16  2  0
 14 17  2  0
  6 18  1  0
 18  2  2  0
 13  8  1  0
  1 19  1  0
  1 20  1  0
  1 21  1  0
  3 22  1  0
  4 23  1  0
  5 24  1  0
  7 25  1  0
  7 26  1  0
  9 27  1  0
 10 28  1  0
 11 29  1  0
 12 30  1  0
 18 31  1  0
M  RAD  1  15   3
M  END
$$$$
