
     RDKit          3D

 31 32  0  0  0  0  0  0  0  0999 V2000
    4.3603    0.2790   -1.1975 C   0  0  0  0  0  0  0  0  0  0  0  0
    3.1681    0.5014   -0.3148 C   0  0  0  0  0  0  0  0  0  0  0  0
    3.3063    0.4663    1.0808 C   0  0  0  0  0  0  0  0  0  0  0  0
    2.1888    0.6316    1.9024 C   0  0  0  0  0  0  0  0  0  0  0  0
    0.9250    0.8218    1.3386 C   0  0  0  0  0  0  0  0  0  0  0  0
    0.7676    0.8461   -0.0562 C   0  0  0  0  0  0  0  0  0  0  0  0
   -0.6029    1.0239   -0.6616 C   0  0  0  0  0  0  0  0  0  0  0  0
   -1.4612   -0.2078   -0.4477 C   0  0  0  0  0  0  0  0  0  0  0  0
   -0.9949   -1.4326   -0.9645 C   0  0  0  0  0  0  0  0  0  0  0  0
   -1.7267   -2.6072   -0.7938 C   0  0  0  0  0  0  0  0  0  0  0  0
   -2.9419   -2.5790   -0.1153 C   0  0  0  0  0  0  0  0  0  0  0  0
   -3.4364   -1.3741    0.3840 C   0  0  0  0  0  0  0  0  0  0  0  0
   -2.7176   -0.1767    0.2197 C   0  0  0  0  0  0  0  0  0  0  0  0
   -3.4409    1.3242    0.8268 S   0  0  0  0  0  0  0  0  0  0  0  0
   -2.4495    1.9983    2.0702 N   0  0  0  0  0  1  0  0  0  0  0  0
   -4.8044    1.0535    1.3987 O   0  0  0  0  0  0  0  0  0  0  0  0
   -3.5837    2.3080   -0.3003 O   0  0  0  0  0  0  0  0  0  0  0  0
    1.8943    0.6751   -0.8789 C   0  0  0  0  0  0  0  0  0  0  0  0
    4.2451    0.8282   -2.1562 H   0  0  0  0  0  0  0  0  0  0  0  0
    4.4639   -0.8053   -1.4113 H   0  0  0  0  0  0  0  0  0  0  0  0
    5.2874    0.6413   -0.7042 H   0  0  0  0  0  0  0  0  0  0  0  0
    4.2781    0.3092    1.5324 H   0  0  0  0  0  0  0  0  0  0  0  0
    2.3014    0.6060    2.9786 H   0  0  0  0  0  0  0  0  0  0  0  0
    0.0682    0.9385    1.9887 H   0  0  0  0  0  0  0  0  0  0  0  0
   -0.5265    1.2115   -1.7547 H   0  0  0  0  0  0  0  0  0  0  0  0
   -1.0462    1.9395   -0.2291 H   0  0  0  0  0  0  0  0  0  0  0  0
   -0.0542   -1.4792   -1.4993 H   0  0  0  0  0  0  0  0  0  0  0  0
   -1.3500   -3.5417   -1.1894 H   0  0  0  0  0  0  0  0  0  0  0  0
   -3.5080   -3.4921    0.0166 H   0  0  0  0  0  0  0  0  0  0  0  0
   -4.3904   -1.3807    0.8941 H   0  0  0  0  0  0  0  0  0  0  0  0
    1.7807    0.6732   -1.9566 H   0  0  0  0  0  0  0  0  0  0  0  0
  1  2  1  0
  2  3  1  0
  3  4  2  0
  4  5  1  0
  5  6  2  0
  6  7  1  0
  7  8  1  0
  8  9  2  0
  9 10  1  0
 10 11  2  0
 11 12  1  0
 12 13  2  0
 13 14  1  0
 14 15  1  0
 14 16  2  0
 14 17  2  0
  6 18  1  0
 18  2  2  0
 13  8  1  0
  1 19  1  0
  1 20  1  0
  1 21  1  0
  3 22  1  0
  4 23  1  0
  5 24  1  0
  7 25  1  0
  7 26  1  0
  9 27  1  0
 10 28  1  0
 11 29  1  0
 12 30  1  0
 18 31  1  0
M  RAD  1  15   3
M  END
$$$$
