
     RDKit          3D

 31 32  0  0  0  0  0  0  0  0999 V2000
    4.0572    1.1756    1.0574 C   0  0  0  0  0  0  0  0  0  0  0  0
    2.9934    0.2936    0.4740 C   0  0  0  0  0  0  0  0  0  0  0  0
    3.2651   -0.4853   -0.6604 C   0  0  0  0  0  0  0  0  0  0  0  0
    2.2877   -1.3386   -1.1775 C   0  0  0  0  0  0  0  0  0  0  0  0
    1.0353   -1.4246   -0.5652 C   0  0  0  0  0  0  0  0  0  0  0  0
    0.7447   -0.6474    0.5691 C   0  0  0  0  0  0  0  0  0  0  0  0
   -0.5935   -0.7638    1.2556 C   0  0  0  0  0  0  0  0  0  0  0  0
   -1.7495   -0.5484    0.2989 C   0  0  0  0  0  0  0  0  0  0  0  0
   -2.4810   -1.6778   -0.1172 C   0  0  0  0  0  0  0  0  0  0  0  0
   -3.5438   -1.5528   -1.0110 C   0  0  0  0  0  0  0  0  0  0  0  0
   -3.8916   -0.3008   -1.5098 C   0  0  0  0  0  0  0  0  0  0  0  0
   -3.1785    0.8316   -1.1166 C   0  0  0  0  0  0  0  0  0  0  0  0
   -2.1081    0.7315   -0.2105 C   0  0  0  0  0  0  0  0  0  0  0  0
   -1.2361    2.2170    0.2165 S   0  0  0  0  0  0  0  0  0  0  0  0
   -2.1283    3.6045   -0.3005 N   0  0  0  0  0  1  0  0  0  0  0  0
   -1.0513    2.3163    1.7038 O   0  0  0  0  0  0  0  0  0  0  0  0
    0.1024    2.2303   -0.4648 O   0  0  0  0  0  0  0  0  0  0  0  0
    1.7412    0.1901    1.0997 C   0  0  0  0  0  0  0  0  0  0  0  0
    4.7509    1.5311    0.2659 H   0  0  0  0  0  0  0  0  0  0  0  0
    4.6341    0.6061    1.8156 H   0  0  0  0  0  0  0  0  0  0  0  0
    3.6035    2.0670    1.5409 H   0  0  0  0  0  0  0  0  0  0  0  0
    4.2343   -0.4358   -1.1412 H   0  0  0  0  0  0  0  0  0  0  0  0
    2.5037   -1.9399   -2.0512 H   0  0  0  0  0  0  0  0  0  0  0  0
    0.2943   -2.1002   -0.9735 H   0  0  0  0  0  0  0  0  0  0  0  0
   -0.6504   -1.7745    1.7152 H   0  0  0  0  0  0  0  0  0  0  0  0
   -0.6772   -0.0608    2.1077 H   0  0  0  0  0  0  0  0  0  0  0  0
   -2.2246   -2.6650    0.2475 H   0  0  0  0  0  0  0  0  0  0  0  0
   -4.0960   -2.4306   -1.3213 H   0  0  0  0  0  0  0  0  0  0  0  0
   -4.7135   -0.2069   -2.2079 H   0  0  0  0  0  0  0  0  0  0  0  0
   -3.4647    1.7884   -1.5315 H   0  0  0  0  0  0  0  0  0  0  0  0
    1.5402    0.7702    1.9926 H   0  0  0  0  0  0  0  0  0  0  0  0
  1  2  1  0
  2  3  1  0
  3  4  2  0
  4  5  1  0
  5  6  2  0
  6  7  1  0
  7  8  1  0
  8  9  2  0
  9 10  1  0
 10 11  2  0
 11 12  1  0
 12 13  2  0
 13 14  1  0
 14 15  1  0
 14 16  2  0
 14 17  2  0
  6 18  1  0
 18  2  2  0
 13  8  1  0
  1 19  1  0
  1 20  1  0
  1 21  1  0
  3 22  1  0
  4 23  1  0
  5 24  1  0
  7 25  1  0
  7 26  1  0
  9 27  1  0
 10 28  1  0
 11 29  1  0
 12 30  1  0
 18 31  1  0
M  RAD  1  15   3
M  END
$$$$
