
     RDKit          3D

 31 32  0  0  0  0  0  0  0  0999 V2000
    4.3513    0.1820   -1.3367 C   0  0  0  0  0  0  0  0  0  0  0  0
    3.2083    0.1287   -0.3667 C   0  0  0  0  0  0  0  0  0  0  0  0
    3.2796    0.8273    0.8477 C   0  0  0  0  0  0  0  0  0  0  0  0
    2.1985    0.8118    1.7322 C   0  0  0  0  0  0  0  0  0  0  0  0
    1.0357    0.1094    1.4073 C   0  0  0  0  0  0  0  0  0  0  0  0
    0.9433   -0.5837    0.1899 C   0  0  0  0  0  0  0  0  0  0  0  0
   -0.3246   -1.3182   -0.1700 C   0  0  0  0  0  0  0  0  0  0  0  0
   -1.4509   -0.3505   -0.4769 C   0  0  0  0  0  0  0  0  0  0  0  0
   -1.2589    0.5720   -1.5243 C   0  0  0  0  0  0  0  0  0  0  0  0
   -2.2475    1.4990   -1.8527 C   0  0  0  0  0  0  0  0  0  0  0  0
   -3.4494    1.5145   -1.1505 C   0  0  0  0  0  0  0  0  0  0  0  0
   -3.6727    0.5949   -0.1258 C   0  0  0  0  0  0  0  0  0  0  0  0
   -2.6918   -0.3516    0.2196 C   0  0  0  0  0  0  0  0  0  0  0  0
   -3.0738   -1.5278    1.4905 S   0  0  0  0  0  0  0  0  0  0  0  0
   -2.0038   -1.3199    2.8303 N   0  0  0  0  0  1  0  0  0  0  0  0
   -2.9419   -2.9218    0.9448 O   0  0  0  0  0  0  0  0  0  0  0  0
   -4.4845   -1.3364    1.9731 O   0  0  0  0  0  0  0  0  0  0  0  0
    2.0320   -0.5618   -0.6988 C   0  0  0  0  0  0  0  0  0  0  0  0
    4.4035   -0.7547   -1.9317 H   0  0  0  0  0  0  0  0  0  0  0  0
    4.2110    1.0412   -2.0253 H   0  0  0  0  0  0  0  0  0  0  0  0
    5.3166    0.3015   -0.8001 H   0  0  0  0  0  0  0  0  0  0  0  0
    4.1706    1.3850    1.1088 H   0  0  0  0  0  0  0  0  0  0  0  0
    2.2596    1.3505    2.6690 H   0  0  0  0  0  0  0  0  0  0  0  0
    0.2037    0.1155    2.0987 H   0  0  0  0  0  0  0  0  0  0  0  0
   -0.1639   -1.9622   -1.0619 H   0  0  0  0  0  0  0  0  0  0  0  0
   -0.5620   -2.0078    0.6606 H   0  0  0  0  0  0  0  0  0  0  0  0
   -0.3338    0.5770   -2.0875 H   0  0  0  0  0  0  0  0  0  0  0  0
   -2.0806    2.2069   -2.6543 H   0  0  0  0  0  0  0  0  0  0  0  0
   -4.2152    2.2354   -1.4066 H   0  0  0  0  0  0  0  0  0  0  0  0
   -4.6221    0.6216    0.3924 H   0  0  0  0  0  0  0  0  0  0  0  0
    1.9637   -1.0778   -1.6492 H   0  0  0  0  0  0  0  0  0  0  0  0
  1  2  1  0
  2  3  1  0
  3  4  2  0
  4  5  1  0
  5  6  2  0
  6  7  1  0
  7  8  1  0
  8  9  2  0
  9 10  1  0
 10 11  2  0
 11 12  1  0
 12 13  2  0
 13 14  1  0
 14 15  1  0
 14 16  2  0
 14 17  2  0
  6 18  1  0
 18  2  2  0
 13  8  1  0
  1 19  1  0
  1 20  1  0
  1 21  1  0
  3 22  1  0
  4 23  1  0
  5 24  1  0
  7 25  1  0
  7 26  1  0
  9 27  1  0
 10 28  1  0
 11 29  1  0
 12 30  1  0
 18 31  1  0
M  RAD  1  15   3
M  END
$$$$
