
     RDKit          3D

 31 32  0  0  0  0  0  0  0  0999 V2000
    3.7868   -2.1142    0.1841 C   0  0  0  0  0  0  0  0  0  0  0  0
    2.9182   -0.8915    0.1655 C   0  0  0  0  0  0  0  0  0  0  0  0
    3.2003    0.1888    1.0145 C   0  0  0  0  0  0  0  0  0  0  0  0
    2.3732    1.3142    1.0183 C   0  0  0  0  0  0  0  0  0  0  0  0
    1.2480    1.3616    0.1921 C   0  0  0  0  0  0  0  0  0  0  0  0
    0.9274    0.2704   -0.6336 C   0  0  0  0  0  0  0  0  0  0  0  0
   -0.2781    0.3225   -1.5391 C   0  0  0  0  0  0  0  0  0  0  0  0
   -1.5482    0.6624   -0.7846 C   0  0  0  0  0  0  0  0  0  0  0  0
   -2.0717    1.9624   -0.9258 C   0  0  0  0  0  0  0  0  0  0  0  0
   -3.2259    2.3472   -0.2446 C   0  0  0  0  0  0  0  0  0  0  0  0
   -3.8743    1.4447    0.5935 C   0  0  0  0  0  0  0  0  0  0  0  0
   -3.3718    0.1535    0.7535 C   0  0  0  0  0  0  0  0  0  0  0  0
   -2.2142   -0.2599    0.0711 C   0  0  0  0  0  0  0  0  0  0  0  0
   -1.6263   -1.9106    0.3519 S   0  0  0  0  0  0  0  0  0  0  0  0
   -2.8353   -2.8477    1.1571 N   0  0  0  0  0  1  0  0  0  0  0  0
   -0.4001   -1.8693    1.2184 O   0  0  0  0  0  0  0  0  0  0  0  0
   -1.3075   -2.5903   -0.9491 O   0  0  0  0  0  0  0  0  0  0  0  0
    1.7782   -0.8485   -0.6522 C   0  0  0  0  0  0  0  0  0  0  0  0
    3.3889   -2.8377    0.9260 H   0  0  0  0  0  0  0  0  0  0  0  0
    4.8307   -1.8512    0.4581 H   0  0  0  0  0  0  0  0  0  0  0  0
    3.8058   -2.5952   -0.8170 H   0  0  0  0  0  0  0  0  0  0  0  0
    4.0633    0.1625    1.6684 H   0  0  0  0  0  0  0  0  0  0  0  0
    2.6044    2.1518    1.6637 H   0  0  0  0  0  0  0  0  0  0  0  0
    0.6240    2.2461    0.2015 H   0  0  0  0  0  0  0  0  0  0  0  0
   -0.0765    1.0817   -2.3258 H   0  0  0  0  0  0  0  0  0  0  0  0
   -0.4143   -0.6279   -2.0919 H   0  0  0  0  0  0  0  0  0  0  0  0
   -1.5808    2.6875   -1.5633 H   0  0  0  0  0  0  0  0  0  0  0  0
   -3.6154    3.3501   -0.3635 H   0  0  0  0  0  0  0  0  0  0  0  0
   -4.7670    1.7474    1.1256 H   0  0  0  0  0  0  0  0  0  0  0  0
   -3.8907   -0.5204    1.4215 H   0  0  0  0  0  0  0  0  0  0  0  0
    1.5490   -1.6905   -1.2946 H   0  0  0  0  0  0  0  0  0  0  0  0
  1  2  1  0
  2  3  1  0
  3  4  2  0
  4  5  1  0
  5  6  2  0
  6  7  1  0
  7  8  1  0
  8  9  2  0
  9 10  1  0
 10 11  2  0
 11 12  1  0
 12 13  2  0
 13 14  1  0
 14 15  1  0
 14 16  2  0
 14 17  2  0
  6 18  1  0
 18  2  2  0
 13  8  1  0
  1 19  1  0
  1 20  1  0
  1 21  1  0
  3 22  1  0
  4 23  1  0
  5 24  1  0
  7 25  1  0
  7 26  1  0
  9 27  1  0
 10 28  1  0
 11 29  1  0
 12 30  1  0
 18 31  1  0
M  RAD  1  15   3
M  END
$$$$
