
     RDKit          3D

 31 32  0  0  0  0  0  0  0  0999 V2000
    3.9620    1.7401    0.3979 C   0  0  0  0  0  0  0  0  0  0  0  0
    2.9662    0.6471    0.1456 C   0  0  0  0  0  0  0  0  0  0  0  0
    3.2353   -0.6643    0.5640 C   0  0  0  0  0  0  0  0  0  0  0  0
    2.3270   -1.6895    0.2908 C   0  0  0  0  0  0  0  0  0  0  0  0
    1.1472   -1.4156   -0.4049 C   0  0  0  0  0  0  0  0  0  0  0  0
    0.8596   -0.1063   -0.8269 C   0  0  0  0  0  0  0  0  0  0  0  0
   -0.3955    0.1881   -1.6104 C   0  0  0  0  0  0  0  0  0  0  0  0
   -1.6424   -0.3014   -0.9009 C   0  0  0  0  0  0  0  0  0  0  0  0
   -2.2666   -1.4651   -1.3909 C   0  0  0  0  0  0  0  0  0  0  0  0
   -3.4056   -1.9805   -0.7735 C   0  0  0  0  0  0  0  0  0  0  0  0
   -3.9381   -1.3482    0.3463 C   0  0  0  0  0  0  0  0  0  0  0  0
   -3.3343   -0.1976    0.8531 C   0  0  0  0  0  0  0  0  0  0  0  0
   -2.1899    0.3452    0.2430 C   0  0  0  0  0  0  0  0  0  0  0  0
   -1.4679    1.7955    0.9673 S   0  0  0  0  0  0  0  0  0  0  0  0
   -2.5566    2.4988    2.1110 N   0  0  0  0  0  1  0  0  0  0  0  0
   -0.1999    1.4250    1.6821 O   0  0  0  0  0  0  0  0  0  0  0  0
   -1.1762    2.8267   -0.0852 O   0  0  0  0  0  0  0  0  0  0  0  0
    1.7899    0.9161   -0.5713 C   0  0  0  0  0  0  0  0  0  0  0  0
    4.5425    1.5372    1.3231 H   0  0  0  0  0  0  0  0  0  0  0  0
    4.6617    1.8076   -0.4611 H   0  0  0  0  0  0  0  0  0  0  0  0
    3.4468    2.7162    0.5239 H   0  0  0  0  0  0  0  0  0  0  0  0
    4.1497   -0.8939    1.0971 H   0  0  0  0  0  0  0  0  0  0  0  0
    2.5411   -2.7004    0.6132 H   0  0  0  0  0  0  0  0  0  0  0  0
    0.4607   -2.2252   -0.6176 H   0  0  0  0  0  0  0  0  0  0  0  0
   -0.2952   -0.2995   -2.6045 H   0  0  0  0  0  0  0  0  0  0  0  0
   -0.4924    1.2688   -1.8342 H   0  0  0  0  0  0  0  0  0  0  0  0
   -1.8667   -1.9825   -2.2544 H   0  0  0  0  0  0  0  0  0  0  0  0
   -3.8735   -2.8759   -1.1621 H   0  0  0  0  0  0  0  0  0  0  0  0
   -4.8192   -1.7533    0.8272 H   0  0  0  0  0  0  0  0  0  0  0  0
   -3.7642    0.2634    1.7319 H   0  0  0  0  0  0  0  0  0  0  0  0
    1.5946    1.9235   -0.9196 H   0  0  0  0  0  0  0  0  0  0  0  0
  1  2  1  0
  2  3  1  0
  3  4  2  0
  4  5  1  0
  5  6  2  0
  6  7  1  0
  7  8  1  0
  8  9  2  0
  9 10  1  0
 10 11  2  0
 11 12  1  0
 12 13  2  0
 13 14  1  0
 14 15  1  0
 14 16  2  0
 14 17  2  0
  6 18  1  0
 18  2  2  0
 13  8  1  0
  1 19  1  0
  1 20  1  0
  1 21  1  0
  3 22  1  0
  4 23  1  0
  5 24  1  0
  7 25  1  0
  7 26  1  0
  9 27  1  0
 10 28  1  0
 11 29  1  0
 12 30  1  0
 18 31  1  0
M  RAD  1  15   3
M  END
$$$$
