
     RDKit          3D

 31 32  0  0  0  0  0  0  0  0999 V2000
    4.0844    1.3332    0.6198 C   0  0  0  0  0  0  0  0  0  0  0  0
    3.0217    0.3155    0.3284 C   0  0  0  0  0  0  0  0  0  0  0  0
    3.0937   -0.9643    0.8978 C   0  0  0  0  0  0  0  0  0  0  0  0
    2.0878   -1.9012    0.6504 C   0  0  0  0  0  0  0  0  0  0  0  0
    0.9933   -1.5620   -0.1483 C   0  0  0  0  0  0  0  0  0  0  0  0
    0.8846   -0.2705   -0.6920 C   0  0  0  0  0  0  0  0  0  0  0  0
   -0.2877    0.0963   -1.5678 C   0  0  0  0  0  0  0  0  0  0  0  0
   -1.6167   -0.1870   -0.8959 C   0  0  0  0  0  0  0  0  0  0  0  0
   -2.3493   -1.3092   -1.3292 C   0  0  0  0  0  0  0  0  0  0  0  0
   -3.5698   -1.6382   -0.7407 C   0  0  0  0  0  0  0  0  0  0  0  0
   -4.0777   -0.8577    0.2938 C   0  0  0  0  0  0  0  0  0  0  0  0
   -3.3678    0.2553    0.7437 C   0  0  0  0  0  0  0  0  0  0  0  0
   -2.1391    0.6115    0.1605 C   0  0  0  0  0  0  0  0  0  0  0  0
   -1.2873    2.0260    0.8107 S   0  0  0  0  0  0  0  0  0  0  0  0
   -2.3407    2.9433    1.8290 N   0  0  0  0  0  1  0  0  0  0  0  0
   -0.8233    2.9244   -0.3001 O   0  0  0  0  0  0  0  0  0  0  0  0
   -0.1094    1.5753    1.6264 O   0  0  0  0  0  0  0  0  0  0  0  0
    1.9131    0.6594   -0.4609 C   0  0  0  0  0  0  0  0  0  0  0  0
    3.7954    1.9217    1.5155 H   0  0  0  0  0  0  0  0  0  0  0  0
    5.0608    0.8390    0.8103 H   0  0  0  0  0  0  0  0  0  0  0  0
    4.2114    2.0230   -0.2417 H   0  0  0  0  0  0  0  0  0  0  0  0
    3.9309   -1.2388    1.5277 H   0  0  0  0  0  0  0  0  0  0  0  0
    2.1563   -2.8926    1.0792 H   0  0  0  0  0  0  0  0  0  0  0  0
    0.2282   -2.3042   -0.3369 H   0  0  0  0  0  0  0  0  0  0  0  0
   -0.2459    1.1580   -1.8816 H   0  0  0  0  0  0  0  0  0  0  0  0
   -0.1970   -0.4824   -2.5128 H   0  0  0  0  0  0  0  0  0  0  0  0
   -1.9717   -1.9395   -2.1251 H   0  0  0  0  0  0  0  0  0  0  0  0
   -4.1205   -2.5042   -1.0849 H   0  0  0  0  0  0  0  0  0  0  0  0
   -5.0227   -1.1184    0.7529 H   0  0  0  0  0  0  0  0  0  0  0  0
   -3.7825    0.8343    1.5576 H   0  0  0  0  0  0  0  0  0  0  0  0
    1.8474    1.6541   -0.8857 H   0  0  0  0  0  0  0  0  0  0  0  0
  1  2  1  0
  2  3  1  0
  3  4  2  0
  4  5  1  0
  5  6  2  0
  6  7  1  0
  7  8  1  0
  8  9  2  0
  9 10  1  0
 10 11  2  0
 11 12  1  0
 12 13  2  0
 13 14  1  0
 14 15  1  0
 14 16  2  0
 14 17  2  0
  6 18  1  0
 18  2  2  0
 13  8  1  0
  1 19  1  0
  1 20  1  0
  1 21  1  0
  3 22  1  0
  4 23  1  0
  5 24  1  0
  7 25  1  0
  7 26  1  0
  9 27  1  0
 10 28  1  0
 11 29  1  0
 12 30  1  0
 18 31  1  0
M  RAD  1  15   3
M  END
$$$$
