
     RDKit          3D

 21 21  0  0  0  0  0  0  0  0999 V2000
   -3.3134   -0.1305    0.0928 C   0  0  0  0  0  0  0  0  0  0  0  0
   -1.8276   -0.4247    0.2766 C   0  0  0  0  0  0  0  0  0  0  0  0
   -0.9632    0.6367   -0.4121 C   0  0  0  0  0  0  0  0  0  0  0  0
    0.5029    0.3342   -0.2201 C   0  0  0  0  0  0  0  0  0  0  0  0
    1.1841    0.8819    0.8813 C   0  0  0  0  0  0  0  0  0  0  0  0
    2.5343    0.5913    1.0946 C   0  0  0  0  0  0  0  0  0  0  0  0
    3.2152   -0.2557    0.2180 C   0  0  0  0  0  0  0  0  0  0  0  0
    2.5465   -0.8183   -0.8717 C   0  0  0  0  0  0  0  0  0  0  0  0
    1.1937   -0.5333   -1.0936 C   0  0  0  0  0  0  0  0  0  0  0  0
    0.5304   -1.1326   -2.2047 N   0  0  0  0  0  1  0  0  0  0  0  0
   -3.5754   -0.1276   -0.9868 H   0  0  0  0  0  0  0  0  0  0  0  0
   -3.9132   -0.9143    0.6016 H   0  0  0  0  0  0  0  0  0  0  0  0
   -3.5691    0.8558    0.5354 H   0  0  0  0  0  0  0  0  0  0  0  0
   -1.6042   -1.4267   -0.1505 H   0  0  0  0  0  0  0  0  0  0  0  0
   -1.5968   -0.4470    1.3642 H   0  0  0  0  0  0  0  0  0  0  0  0
   -1.2059    0.6782   -1.4962 H   0  0  0  0  0  0  0  0  0  0  0  0
   -1.1995    1.6388    0.0094 H   0  0  0  0  0  0  0  0  0  0  0  0
    0.6685    1.5335    1.5760 H   0  0  0  0  0  0  0  0  0  0  0  0
    3.0522    1.0207    1.9425 H   0  0  0  0  0  0  0  0  0  0  0  0
    4.2606   -0.4803    0.3859 H   0  0  0  0  0  0  0  0  0  0  0  0
    3.0800   -1.4801   -1.5425 H   0  0  0  0  0  0  0  0  0  0  0  0
  1  2  1  0
  2  3  1  0
  3  4  1  0
  4  5  2  0
  5  6  1  0
  6  7  2  0
  7  8  1  0
  8  9  2  0
  9 10  1  0
  9  4  1  0
  1 11  1  0
  1 12  1  0
  1 13  1  0
  2 14  1  0
  2 15  1  0
  3 16  1  0
  3 17  1  0
  5 18  1  0
  6 19  1  0
  7 20  1  0
  8 21  1  0
M  RAD  1  10   3
M  END
$$$$
