
     RDKit          3D

 21 21  0  0  0  0  0  0  0  0999 V2000
   -3.2789    0.2844    0.4678 C   0  0  0  0  0  0  0  0  0  0  0  0
   -1.8665    0.2947   -0.1092 C   0  0  0  0  0  0  0  0  0  0  0  0
   -0.8426   -0.1887    0.9231 C   0  0  0  0  0  0  0  0  0  0  0  0
    0.5492   -0.1710    0.3396 C   0  0  0  0  0  0  0  0  0  0  0  0
    1.3463    0.9780    0.4858 C   0  0  0  0  0  0  0  0  0  0  0  0
    2.6268    1.0270   -0.0718 C   0  0  0  0  0  0  0  0  0  0  0  0
    3.1205   -0.0646   -0.7887 C   0  0  0  0  0  0  0  0  0  0  0  0
    2.3333   -1.2066   -0.9541 C   0  0  0  0  0  0  0  0  0  0  0  0
    1.0490   -1.2650   -0.3994 C   0  0  0  0  0  0  0  0  0  0  0  0
    0.2599   -2.4365   -0.5957 N   0  0  0  0  0  1  0  0  0  0  0  0
   -3.3406    0.9579    1.3491 H   0  0  0  0  0  0  0  0  0  0  0  0
   -3.9971    0.6391   -0.3011 H   0  0  0  0  0  0  0  0  0  0  0  0
   -3.5638   -0.7454    0.7719 H   0  0  0  0  0  0  0  0  0  0  0  0
   -1.6155    1.3300   -0.4285 H   0  0  0  0  0  0  0  0  0  0  0  0
   -1.8390   -0.3651   -1.0038 H   0  0  0  0  0  0  0  0  0  0  0  0
   -1.1016   -1.2154    1.2620 H   0  0  0  0  0  0  0  0  0  0  0  0
   -0.8829    0.4665    1.8214 H   0  0  0  0  0  0  0  0  0  0  0  0
    0.9751    1.8370    1.0311 H   0  0  0  0  0  0  0  0  0  0  0  0
    3.2355    1.9138    0.0493 H   0  0  0  0  0  0  0  0  0  0  0  0
    4.1121   -0.0239   -1.2208 H   0  0  0  0  0  0  0  0  0  0  0  0
    2.7209   -2.0459   -1.5179 H   0  0  0  0  0  0  0  0  0  0  0  0
  1  2  1  0
  2  3  1  0
  3  4  1  0
  4  5  2  0
  5  6  1  0
  6  7  2  0
  7  8  1  0
  8  9  2  0
  9 10  1  0
  9  4  1  0
  1 11  1  0
  1 12  1  0
  1 13  1  0
  2 14  1  0
  2 15  1  0
  3 16  1  0
  3 17  1  0
  5 18  1  0
  6 19  1  0
  7 20  1  0
  8 21  1  0
M  RAD  1  10   3
M  END
$$$$
