
     RDKit          3D

 21 21  0  0  0  0  0  0  0  0999 V2000
   -3.2484    0.5769   -0.2630 C   0  0  0  0  0  0  0  0  0  0  0  0
   -1.7482    0.4411   -0.5058 C   0  0  0  0  0  0  0  0  0  0  0  0
   -1.0289   -0.0749    0.7449 C   0  0  0  0  0  0  0  0  0  0  0  0
    0.4534   -0.2020    0.4909 C   0  0  0  0  0  0  0  0  0  0  0  0
    1.3005    0.8823    0.7802 C   0  0  0  0  0  0  0  0  0  0  0  0
    2.6719    0.7969    0.5254 C   0  0  0  0  0  0  0  0  0  0  0  0
    3.2100   -0.3659   -0.0294 C   0  0  0  0  0  0  0  0  0  0  0  0
    2.3773   -1.4449   -0.3354 C   0  0  0  0  0  0  0  0  0  0  0  0
    1.0020   -1.3688   -0.0839 C   0  0  0  0  0  0  0  0  0  0  0  0
    0.1717   -2.4785   -0.4196 N   0  0  0  0  0  1  0  0  0  0  0  0
   -3.6876   -0.4094   -0.0016 H   0  0  0  0  0  0  0  0  0  0  0  0
   -3.7415    0.9522   -1.1844 H   0  0  0  0  0  0  0  0  0  0  0  0
   -3.4423    1.2956    0.5616 H   0  0  0  0  0  0  0  0  0  0  0  0
   -1.5833   -0.2617   -1.3515 H   0  0  0  0  0  0  0  0  0  0  0  0
   -1.3380    1.4350   -0.7899 H   0  0  0  0  0  0  0  0  0  0  0  0
   -1.2075    0.6245    1.5914 H   0  0  0  0  0  0  0  0  0  0  0  0
   -1.4505   -1.0586    1.0460 H   0  0  0  0  0  0  0  0  0  0  0  0
    0.8981    1.7950    1.2023 H   0  0  0  0  0  0  0  0  0  0  0  0
    3.3176    1.6346    0.7553 H   0  0  0  0  0  0  0  0  0  0  0  0
    4.2722   -0.4293   -0.2271 H   0  0  0  0  0  0  0  0  0  0  0  0
    2.8016   -2.3403   -0.7724 H   0  0  0  0  0  0  0  0  0  0  0  0
  1  2  1  0
  2  3  1  0
  3  4  1  0
  4  5  2  0
  5  6  1  0
  6  7  2  0
  7  8  1  0
  8  9  2  0
  9 10  1  0
  9  4  1  0
  1 11  1  0
  1 12  1  0
  1 13  1  0
  2 14  1  0
  2 15  1  0
  3 16  1  0
  3 17  1  0
  5 18  1  0
  6 19  1  0
  7 20  1  0
  8 21  1  0
M  RAD  1  10   3
M  END
$$$$
