
     RDKit          3D

 21 21  0  0  0  0  0  0  0  0999 V2000
   -2.3233   -0.6926   -0.8160 C   0  0  0  0  0  0  0  0  0  0  0  0
   -2.1294    0.4389    0.1923 C   0  0  0  0  0  0  0  0  0  0  0  0
   -1.0251    0.1332    1.2146 C   0  0  0  0  0  0  0  0  0  0  0  0
    0.3462    0.1061    0.5780 C   0  0  0  0  0  0  0  0  0  0  0  0
    0.9903    1.3210    0.2845 C   0  0  0  0  0  0  0  0  0  0  0  0
    2.2484    1.3279   -0.3232 C   0  0  0  0  0  0  0  0  0  0  0  0
    2.8750    0.1237   -0.6488 C   0  0  0  0  0  0  0  0  0  0  0  0
    2.2443   -1.0907   -0.3690 C   0  0  0  0  0  0  0  0  0  0  0  0
    0.9835   -1.1083    0.2399 C   0  0  0  0  0  0  0  0  0  0  0  0
    0.3606   -2.3631    0.5059 N   0  0  0  0  0  1  0  0  0  0  0  0
   -1.4168   -0.8134   -1.4454 H   0  0  0  0  0  0  0  0  0  0  0  0
   -3.1801   -0.4532   -1.4804 H   0  0  0  0  0  0  0  0  0  0  0  0
   -2.5384   -1.6470   -0.2902 H   0  0  0  0  0  0  0  0  0  0  0  0
   -1.8979    1.3819   -0.3492 H   0  0  0  0  0  0  0  0  0  0  0  0
   -3.0853    0.5904    0.7388 H   0  0  0  0  0  0  0  0  0  0  0  0
   -1.0413    0.9233    1.9968 H   0  0  0  0  0  0  0  0  0  0  0  0
   -1.2485   -0.8213    1.7377 H   0  0  0  0  0  0  0  0  0  0  0  0
    0.5155    2.2641    0.5261 H   0  0  0  0  0  0  0  0  0  0  0  0
    2.7371    2.2681   -0.5438 H   0  0  0  0  0  0  0  0  0  0  0  0
    3.8492    0.1312   -1.1204 H   0  0  0  0  0  0  0  0  0  0  0  0
    2.7359   -2.0201   -0.6282 H   0  0  0  0  0  0  0  0  0  0  0  0
  1  2  1  0
  2  3  1  0
  3  4  1  0
  4  5  2  0
  5  6  1  0
  6  7  2  0
  7  8  1  0
  8  9  2  0
  9 10  1  0
  9  4  1  0
  1 11  1  0
  1 12  1  0
  1 13  1  0
  2 14  1  0
  2 15  1  0
  3 16  1  0
  3 17  1  0
  5 18  1  0
  6 19  1  0
  7 20  1  0
  8 21  1  0
M  RAD  1  10   3
M  END
$$$$
