
     RDKit          3D

 21 21  0  0  0  0  0  0  0  0999 V2000
    3.2801    0.4015    0.2899 C   0  0  0  0  0  0  0  0  0  0  0  0
    1.7767    0.3738    0.5484 C   0  0  0  0  0  0  0  0  0  0  0  0
    1.0167   -0.1825   -0.6602 C   0  0  0  0  0  0  0  0  0  0  0  0
   -0.4683   -0.2018   -0.3912 C   0  0  0  0  0  0  0  0  0  0  0  0
   -1.2511    0.9093   -0.7511 C   0  0  0  0  0  0  0  0  0  0  0  0
   -2.6229    0.9250   -0.4847 C   0  0  0  0  0  0  0  0  0  0  0  0
   -3.2250   -0.1621    0.1517 C   0  0  0  0  0  0  0  0  0  0  0  0
   -2.4561   -1.2660    0.5279 C   0  0  0  0  0  0  0  0  0  0  0  0
   -1.0810   -1.2908    0.2654 C   0  0  0  0  0  0  0  0  0  0  0  0
   -0.3160   -2.4231    0.6733 N   0  0  0  0  0  1  0  0  0  0  0  0
    3.5097    1.0486   -0.5833 H   0  0  0  0  0  0  0  0  0  0  0  0
    3.6569   -0.6253    0.0954 H   0  0  0  0  0  0  0  0  0  0  0  0
    3.8029    0.8087    1.1808 H   0  0  0  0  0  0  0  0  0  0  0  0
    1.4294    1.4079    0.7649 H   0  0  0  0  0  0  0  0  0  0  0  0
    1.5772   -0.2578    1.4415 H   0  0  0  0  0  0  0  0  0  0  0  0
    1.2296    0.4449   -1.5539 H   0  0  0  0  0  0  0  0  0  0  0  0
    1.3758   -1.2083   -0.8944 H   0  0  0  0  0  0  0  0  0  0  0  0
   -0.7983    1.7647   -1.2372 H   0  0  0  0  0  0  0  0  0  0  0  0
   -3.2190    1.7825   -0.7691 H   0  0  0  0  0  0  0  0  0  0  0  0
   -4.2874   -0.1473    0.3581 H   0  0  0  0  0  0  0  0  0  0  0  0
   -2.9296   -2.1018    1.0277 H   0  0  0  0  0  0  0  0  0  0  0  0
  1  2  1  0
  2  3  1  0
  3  4  1  0
  4  5  2  0
  5  6  1  0
  6  7  2  0
  7  8  1  0
  8  9  2  0
  9 10  1  0
  9  4  1  0
  1 11  1  0
  1 12  1  0
  1 13  1  0
  2 14  1  0
  2 15  1  0
  3 16  1  0
  3 17  1  0
  5 18  1  0
  6 19  1  0
  7 20  1  0
  8 21  1  0
M  RAD  1  10   3
M  END
$$$$
