
     RDKit          3D

 21 21  0  0  0  0  0  0  0  0999 V2000
   -3.3142   -0.1426   -0.1867 C   0  0  0  0  0  0  0  0  0  0  0  0
   -1.8551    0.0727    0.2040 C   0  0  0  0  0  0  0  0  0  0  0  0
   -0.9111   -0.3387   -0.9308 C   0  0  0  0  0  0  0  0  0  0  0  0
    0.5275   -0.1182   -0.5313 C   0  0  0  0  0  0  0  0  0  0  0  0
    1.1467    1.1097   -0.8241 C   0  0  0  0  0  0  0  0  0  0  0  0
    2.4686    1.3461   -0.4373 C   0  0  0  0  0  0  0  0  0  0  0  0
    3.1821    0.3648    0.2535 C   0  0  0  0  0  0  0  0  0  0  0  0
    2.5741   -0.8539    0.5638 C   0  0  0  0  0  0  0  0  0  0  0  0
    1.2500   -1.1000    0.1807 C   0  0  0  0  0  0  0  0  0  0  0  0
    0.6477   -2.3464    0.5231 N   0  0  0  0  0  1  0  0  0  0  0  0
   -3.9729    0.1638    0.6530 H   0  0  0  0  0  0  0  0  0  0  0  0
   -3.5689    0.4681   -1.0790 H   0  0  0  0  0  0  0  0  0  0  0  0
   -3.4994   -1.2149   -0.4104 H   0  0  0  0  0  0  0  0  0  0  0  0
   -1.6342   -0.5279    1.1133 H   0  0  0  0  0  0  0  0  0  0  0  0
   -1.7021    1.1470    0.4469 H   0  0  0  0  0  0  0  0  0  0  0  0
   -1.0756   -1.4066   -1.1924 H   0  0  0  0  0  0  0  0  0  0  0  0
   -1.1444    0.2556   -1.8419 H   0  0  0  0  0  0  0  0  0  0  0  0
    0.6045    1.8851   -1.3513 H   0  0  0  0  0  0  0  0  0  0  0  0
    2.9391    2.2925   -0.6707 H   0  0  0  0  0  0  0  0  0  0  0  0
    4.2055    0.5505    0.5532 H   0  0  0  0  0  0  0  0  0  0  0  0
    3.1321   -1.6068    1.1064 H   0  0  0  0  0  0  0  0  0  0  0  0
  1  2  1  0
  2  3  1  0
  3  4  1  0
  4  5  2  0
  5  6  1  0
  6  7  2  0
  7  8  1  0
  8  9  2  0
  9 10  1  0
  9  4  1  0
  1 11  1  0
  1 12  1  0
  1 13  1  0
  2 14  1  0
  2 15  1  0
  3 16  1  0
  3 17  1  0
  5 18  1  0
  6 19  1  0
  7 20  1  0
  8 21  1  0
M  RAD  1  10   3
M  END
$$$$
