
     RDKit          3D

 21 21  0  0  0  0  0  0  0  0999 V2000
   -2.3279   -0.1886    1.0434 C   0  0  0  0  0  0  0  0  0  0  0  0
   -2.1282   -0.1171   -0.4697 C   0  0  0  0  0  0  0  0  0  0  0  0
   -0.9049   -0.9171   -0.9402 C   0  0  0  0  0  0  0  0  0  0  0  0
    0.3926   -0.2984   -0.4711 C   0  0  0  0  0  0  0  0  0  0  0  0
    0.9003    0.8255   -1.1466 C   0  0  0  0  0  0  0  0  0  0  0  0
    2.0857    1.4318   -0.7230 C   0  0  0  0  0  0  0  0  0  0  0  0
    2.7745    0.9267    0.3811 C   0  0  0  0  0  0  0  0  0  0  0  0
    2.2787   -0.1852    1.0657 C   0  0  0  0  0  0  0  0  0  0  0  0
    1.0917   -0.8001    0.6491 C   0  0  0  0  0  0  0  0  0  0  0  0
    0.6056   -1.9286    1.3726 N   0  0  0  0  0  1  0  0  0  0  0  0
   -3.2643    0.3409    1.3184 H   0  0  0  0  0  0  0  0  0  0  0  0
   -1.4825    0.3004    1.5716 H   0  0  0  0  0  0  0  0  0  0  0  0
   -2.4085   -1.2459    1.3738 H   0  0  0  0  0  0  0  0  0  0  0  0
   -3.0334   -0.5319   -0.9637 H   0  0  0  0  0  0  0  0  0  0  0  0
   -2.0321    0.9459   -0.7808 H   0  0  0  0  0  0  0  0  0  0  0  0
   -0.9939   -1.9737   -0.6080 H   0  0  0  0  0  0  0  0  0  0  0  0
   -0.9079   -0.9432   -2.0518 H   0  0  0  0  0  0  0  0  0  0  0  0
    0.3753    1.2328   -2.0020 H   0  0  0  0  0  0  0  0  0  0  0  0
    2.4696    2.2956   -1.2504 H   0  0  0  0  0  0  0  0  0  0  0  0
    3.6921    1.3984    0.7082 H   0  0  0  0  0  0  0  0  0  0  0  0
    2.8175   -0.5683    1.9234 H   0  0  0  0  0  0  0  0  0  0  0  0
  1  2  1  0
  2  3  1  0
  3  4  1  0
  4  5  2  0
  5  6  1  0
  6  7  2  0
  7  8  1  0
  8  9  2  0
  9 10  1  0
  9  4  1  0
  1 11  1  0
  1 12  1  0
  1 13  1  0
  2 14  1  0
  2 15  1  0
  3 16  1  0
  3 17  1  0
  5 18  1  0
  6 19  1  0
  7 20  1  0
  8 21  1  0
M  RAD  1  10   3
M  END
$$$$
