
     RDKit          3D

 21 21  0  0  0  0  0  0  0  0999 V2000
    3.3158   -0.0338    0.0354 C   0  0  0  0  0  0  0  0  0  0  0  0
    1.8398    0.1387   -0.3104 C   0  0  0  0  0  0  0  0  0  0  0  0
    0.9432   -0.3061    0.8498 C   0  0  0  0  0  0  0  0  0  0  0  0
   -0.5130   -0.1322    0.4929 C   0  0  0  0  0  0  0  0  0  0  0  0
   -1.2119   -1.1978   -0.1010 C   0  0  0  0  0  0  0  0  0  0  0  0
   -2.5526   -1.0489   -0.4664 C   0  0  0  0  0  0  0  0  0  0  0  0
   -3.2058    0.1664   -0.2526 C   0  0  0  0  0  0  0  0  0  0  0  0
   -2.5188    1.2378    0.3230 C   0  0  0  0  0  0  0  0  0  0  0  0
   -1.1754    1.0984    0.6922 C   0  0  0  0  0  0  0  0  0  0  0  0
   -0.4926    2.2122    1.2639 N   0  0  0  0  0  1  0  0  0  0  0  0
    3.5785    0.5813    0.9224 H   0  0  0  0  0  0  0  0  0  0  0  0
    3.9394    0.2955   -0.8223 H   0  0  0  0  0  0  0  0  0  0  0  0
    3.5400   -1.1007    0.2487 H   0  0  0  0  0  0  0  0  0  0  0  0
    1.6483    1.2086   -0.5450 H   0  0  0  0  0  0  0  0  0  0  0  0
    1.6087   -0.4660   -1.2147 H   0  0  0  0  0  0  0  0  0  0  0  0
    1.1475   -1.3732    1.0893 H   0  0  0  0  0  0  0  0  0  0  0  0
    1.1854    0.2805    1.7626 H   0  0  0  0  0  0  0  0  0  0  0  0
   -0.7177   -2.1443   -0.2823 H   0  0  0  0  0  0  0  0  0  0  0  0
   -3.0845   -1.8758   -0.9190 H   0  0  0  0  0  0  0  0  0  0  0  0
   -4.2438    0.2798   -0.5376 H   0  0  0  0  0  0  0  0  0  0  0  0
   -3.0307    2.1793    0.4785 H   0  0  0  0  0  0  0  0  0  0  0  0
  1  2  1  0
  2  3  1  0
  3  4  1  0
  4  5  2  0
  5  6  1  0
  6  7  2  0
  7  8  1  0
  8  9  2  0
  9 10  1  0
  9  4  1  0
  1 11  1  0
  1 12  1  0
  1 13  1  0
  2 14  1  0
  2 15  1  0
  3 16  1  0
  3 17  1  0
  5 18  1  0
  6 19  1  0
  7 20  1  0
  8 21  1  0
M  RAD  1  10   3
M  END
$$$$
