
     RDKit          3D

 21 21  0  0  0  0  0  0  0  0999 V2000
    2.3612    0.3372   -0.9547 C   0  0  0  0  0  0  0  0  0  0  0  0
    1.8934   -1.0145   -0.4175 C   0  0  0  0  0  0  0  0  0  0  0  0
    1.0134   -0.8778    0.8335 C   0  0  0  0  0  0  0  0  0  0  0  0
   -0.3212   -0.2389    0.5217 C   0  0  0  0  0  0  0  0  0  0  0  0
   -1.3315   -1.0160   -0.0722 C   0  0  0  0  0  0  0  0  0  0  0  0
   -2.5675   -0.4480   -0.3916 C   0  0  0  0  0  0  0  0  0  0  0  0
   -2.8072    0.9014   -0.1263 C   0  0  0  0  0  0  0  0  0  0  0  0
   -1.8107    1.6870    0.4575 C   0  0  0  0  0  0  0  0  0  0  0  0
   -0.5688    1.1272    0.7814 C   0  0  0  0  0  0  0  0  0  0  0  0
    0.4320    1.9558    1.3690 N   0  0  0  0  0  1  0  0  0  0  0  0
    2.8997    0.9025   -0.1647 H   0  0  0  0  0  0  0  0  0  0  0  0
    1.4967    0.9347   -1.3128 H   0  0  0  0  0  0  0  0  0  0  0  0
    3.0522    0.1767   -1.8089 H   0  0  0  0  0  0  0  0  0  0  0  0
    1.3420   -1.5591   -1.2146 H   0  0  0  0  0  0  0  0  0  0  0  0
    2.7894   -1.6178   -0.1555 H   0  0  0  0  0  0  0  0  0  0  0  0
    0.8357   -1.8928    1.2513 H   0  0  0  0  0  0  0  0  0  0  0  0
    1.5595   -0.3135    1.6196 H   0  0  0  0  0  0  0  0  0  0  0  0
   -1.1598   -2.0632   -0.2892 H   0  0  0  0  0  0  0  0  0  0  0  0
   -3.3396   -1.0545   -0.8471 H   0  0  0  0  0  0  0  0  0  0  0  0
   -3.7650    1.3397   -0.3753 H   0  0  0  0  0  0  0  0  0  0  0  0
   -2.0038    2.7337    0.6565 H   0  0  0  0  0  0  0  0  0  0  0  0
  1  2  1  0
  2  3  1  0
  3  4  1  0
  4  5  2  0
  5  6  1  0
  6  7  2  0
  7  8  1  0
  8  9  2  0
  9 10  1  0
  9  4  1  0
  1 11  1  0
  1 12  1  0
  1 13  1  0
  2 14  1  0
  2 15  1  0
  3 16  1  0
  3 17  1  0
  5 18  1  0
  6 19  1  0
  7 20  1  0
  8 21  1  0
M  RAD  1  10   3
M  END
$$$$
