
     RDKit          3D

 21 21  0  0  0  0  0  0  0  0999 V2000
   -2.2681   -0.1777   -1.0372 C   0  0  0  0  0  0  0  0  0  0  0  0
   -2.1544   -0.0371    0.4800 C   0  0  0  0  0  0  0  0  0  0  0  0
   -0.9845   -0.8452    1.0598 C   0  0  0  0  0  0  0  0  0  0  0  0
    0.3557   -0.2851    0.6395 C   0  0  0  0  0  0  0  0  0  0  0  0
    0.8563    0.8567    1.2896 C   0  0  0  0  0  0  0  0  0  0  0  0
    2.0817    1.4097    0.9086 C   0  0  0  0  0  0  0  0  0  0  0  0
    2.8180    0.8325   -0.1274 C   0  0  0  0  0  0  0  0  0  0  0  0
    2.3302   -0.2981   -0.7864 C   0  0  0  0  0  0  0  0  0  0  0  0
    1.1034   -0.8599   -0.4121 C   0  0  0  0  0  0  0  0  0  0  0  0
    0.6270   -2.0094   -1.1085 N   0  0  0  0  0  1  0  0  0  0  0  0
   -3.1709    0.3623   -1.3921 H   0  0  0  0  0  0  0  0  0  0  0  0
   -1.3795    0.2619   -1.5370 H   0  0  0  0  0  0  0  0  0  0  0  0
   -2.3606   -1.2475   -1.3210 H   0  0  0  0  0  0  0  0  0  0  0  0
   -2.0451    1.0370    0.7453 H   0  0  0  0  0  0  0  0  0  0  0  0
   -3.0985   -0.4028    0.9386 H   0  0  0  0  0  0  0  0  0  0  0  0
   -1.0527   -0.8164    2.1693 H   0  0  0  0  0  0  0  0  0  0  0  0
   -1.0852   -1.9141    0.7737 H   0  0  0  0  0  0  0  0  0  0  0  0
    0.2949    1.3196    2.0920 H   0  0  0  0  0  0  0  0  0  0  0  0
    2.4596    2.2878    1.4160 H   0  0  0  0  0  0  0  0  0  0  0  0
    3.7666    1.2630   -0.4216 H   0  0  0  0  0  0  0  0  0  0  0  0
    2.9062   -0.7373   -1.5914 H   0  0  0  0  0  0  0  0  0  0  0  0
  1  2  1  0
  2  3  1  0
  3  4  1  0
  4  5  2  0
  5  6  1  0
  6  7  2  0
  7  8  1  0
  8  9  2  0
  9 10  1  0
  9  4  1  0
  1 11  1  0
  1 12  1  0
  1 13  1  0
  2 14  1  0
  2 15  1  0
  3 16  1  0
  3 17  1  0
  5 18  1  0
  6 19  1  0
  7 20  1  0
  8 21  1  0
M  RAD  1  10   3
M  END
$$$$
