
     RDKit          3D

 21 21  0  0  0  0  0  0  0  0999 V2000
    2.4436    0.7414   -0.1492 C   0  0  0  0  0  0  0  0  0  0  0  0
    2.0454   -0.7325   -0.2086 C   0  0  0  0  0  0  0  0  0  0  0  0
    0.9032   -1.0729    0.7596 C   0  0  0  0  0  0  0  0  0  0  0  0
   -0.4011   -0.4280    0.3480 C   0  0  0  0  0  0  0  0  0  0  0  0
   -1.1499   -1.0004   -0.6955 C   0  0  0  0  0  0  0  0  0  0  0  0
   -2.3482   -0.4149   -1.1122 C   0  0  0  0  0  0  0  0  0  0  0  0
   -2.8096    0.7496   -0.4961 C   0  0  0  0  0  0  0  0  0  0  0  0
   -2.0730    1.3328    0.5374 C   0  0  0  0  0  0  0  0  0  0  0  0
   -0.8711    0.7538    0.9624 C   0  0  0  0  0  0  0  0  0  0  0  0
   -0.1366    1.3763    2.0143 N   0  0  0  0  0  1  0  0  0  0  0  0
    1.6095    1.3850   -0.4995 H   0  0  0  0  0  0  0  0  0  0  0  0
    3.3193    0.9149   -0.8095 H   0  0  0  0  0  0  0  0  0  0  0  0
    2.7200    1.0263    0.8881 H   0  0  0  0  0  0  0  0  0  0  0  0
    2.9317   -1.3471    0.0598 H   0  0  0  0  0  0  0  0  0  0  0  0
    1.7554   -0.9961   -1.2490 H   0  0  0  0  0  0  0  0  0  0  0  0
    1.1880   -0.7872    1.7950 H   0  0  0  0  0  0  0  0  0  0  0  0
    0.7691   -2.1766    0.7713 H   0  0  0  0  0  0  0  0  0  0  0  0
   -0.8032   -1.9010   -1.1873 H   0  0  0  0  0  0  0  0  0  0  0  0
   -2.9185   -0.8637   -1.9152 H   0  0  0  0  0  0  0  0  0  0  0  0
   -3.7376    1.2020   -0.8211 H   0  0  0  0  0  0  0  0  0  0  0  0
   -2.4365    2.2382    1.0074 H   0  0  0  0  0  0  0  0  0  0  0  0
  1  2  1  0
  2  3  1  0
  3  4  1  0
  4  5  2  0
  5  6  1  0
  6  7  2  0
  7  8  1  0
  8  9  2  0
  9 10  1  0
  9  4  1  0
  1 11  1  0
  1 12  1  0
  1 13  1  0
  2 14  1  0
  2 15  1  0
  3 16  1  0
  3 17  1  0
  5 18  1  0
  6 19  1  0
  7 20  1  0
  8 21  1  0
M  RAD  1  10   3
M  END
$$$$
