
     RDKit          3D

 21 21  0  0  0  0  0  0  0  0999 V2000
    2.2284    0.9661   -0.8026 C   0  0  0  0  0  0  0  0  0  0  0  0
    2.1654   -0.1781    0.2081 C   0  0  0  0  0  0  0  0  0  0  0  0
    1.0563   -1.1893   -0.1165 C   0  0  0  0  0  0  0  0  0  0  0  0
   -0.3230   -0.5971    0.0657 C   0  0  0  0  0  0  0  0  0  0  0  0
   -0.8508   -0.4740    1.3632 C   0  0  0  0  0  0  0  0  0  0  0  0
   -2.1136    0.0890    1.5645 C   0  0  0  0  0  0  0  0  0  0  0  0
   -2.8610    0.5392    0.4749 C   0  0  0  0  0  0  0  0  0  0  0  0
   -2.3468    0.4293   -0.8190 C   0  0  0  0  0  0  0  0  0  0  0  0
   -1.0824   -0.1335   -1.0314 C   0  0  0  0  0  0  0  0  0  0  0  0
   -0.5801   -0.2252   -2.3628 N   0  0  0  0  0  1  0  0  0  0  0  0
    2.3592    0.5675   -1.8310 H   0  0  0  0  0  0  0  0  0  0  0  0
    3.0916    1.6227   -0.5646 H   0  0  0  0  0  0  0  0  0  0  0  0
    1.3025    1.5771   -0.7579 H   0  0  0  0  0  0  0  0  0  0  0  0
    2.0169    0.2371    1.2287 H   0  0  0  0  0  0  0  0  0  0  0  0
    3.1418   -0.7090    0.1993 H   0  0  0  0  0  0  0  0  0  0  0  0
    1.1953   -1.5850   -1.1454 H   0  0  0  0  0  0  0  0  0  0  0  0
    1.1646   -2.0611    0.5652 H   0  0  0  0  0  0  0  0  0  0  0  0
   -0.2815   -0.8138    2.2197 H   0  0  0  0  0  0  0  0  0  0  0  0
   -2.5122    0.1780    2.5669 H   0  0  0  0  0  0  0  0  0  0  0  0
   -3.8387    0.9759    0.6332 H   0  0  0  0  0  0  0  0  0  0  0  0
   -2.9318    0.7844   -1.6582 H   0  0  0  0  0  0  0  0  0  0  0  0
  1  2  1  0
  2  3  1  0
  3  4  1  0
  4  5  2  0
  5  6  1  0
  6  7  2  0
  7  8  1  0
  8  9  2  0
  9 10  1  0
  9  4  1  0
  1 11  1  0
  1 12  1  0
  1 13  1  0
  2 14  1  0
  2 15  1  0
  3 16  1  0
  3 17  1  0
  5 18  1  0
  6 19  1  0
  7 20  1  0
  8 21  1  0
M  RAD  1  10   3
M  END
$$$$
