
     RDKit          3D

 21 21  0  0  0  0  0  0  0  0999 V2000
   -3.2708   -0.2295    0.4895 C   0  0  0  0  0  0  0  0  0  0  0  0
   -1.7825    0.0755    0.6298 C   0  0  0  0  0  0  0  0  0  0  0  0
   -0.9916   -0.4611   -0.5679 C   0  0  0  0  0  0  0  0  0  0  0  0
    0.4776   -0.1503   -0.4166 C   0  0  0  0  0  0  0  0  0  0  0  0
    0.9917    1.0424   -0.9552 C   0  0  0  0  0  0  0  0  0  0  0  0
    2.3429    1.3641   -0.8013 C   0  0  0  0  0  0  0  0  0  0  0  0
    3.1918    0.5051   -0.1008 C   0  0  0  0  0  0  0  0  0  0  0  0
    2.6908   -0.6758    0.4521 C   0  0  0  0  0  0  0  0  0  0  0  0
    1.3384   -1.0067    0.3034 C   0  0  0  0  0  0  0  0  0  0  0  0
    0.8489   -2.2105    0.8905 N   0  0  0  0  0  1  0  0  0  0  0  0
   -3.6776    0.2473   -0.4277 H   0  0  0  0  0  0  0  0  0  0  0  0
   -3.4365   -1.3268    0.4375 H   0  0  0  0  0  0  0  0  0  0  0  0
   -3.8168    0.1706    1.3697 H   0  0  0  0  0  0  0  0  0  0  0  0
   -1.6461    1.1766    0.7051 H   0  0  0  0  0  0  0  0  0  0  0  0
   -1.4071   -0.3899    1.5673 H   0  0  0  0  0  0  0  0  0  0  0  0
   -1.1422   -1.5587   -0.6607 H   0  0  0  0  0  0  0  0  0  0  0  0
   -1.3791   -0.0026   -1.5045 H   0  0  0  0  0  0  0  0  0  0  0  0
    0.3450    1.7243   -1.4936 H   0  0  0  0  0  0  0  0  0  0  0  0
    2.7314    2.2822   -1.2229 H   0  0  0  0  0  0  0  0  0  0  0  0
    4.2377    0.7569    0.0183 H   0  0  0  0  0  0  0  0  0  0  0  0
    3.3543   -1.3329    1.0004 H   0  0  0  0  0  0  0  0  0  0  0  0
  1  2  1  0
  2  3  1  0
  3  4  1  0
  4  5  2  0
  5  6  1  0
  6  7  2  0
  7  8  1  0
  8  9  2  0
  9 10  1  0
  9  4  1  0
  1 11  1  0
  1 12  1  0
  1 13  1  0
  2 14  1  0
  2 15  1  0
  3 16  1  0
  3 17  1  0
  5 18  1  0
  6 19  1  0
  7 20  1  0
  8 21  1  0
M  RAD  1  10   3
M  END
$$$$
