
     RDKit          3D

 31 32  0  0  0  0  0  0  0  0999 V2000
   -1.6237   -1.5026   -0.4252 C   0  0  0  0  0  0  0  0  0  0  0  0
   -1.7129    0.0012   -0.4355 C   0  0  0  0  0  0  0  0  0  0  0  0
   -2.2594    0.6392   -1.5638 C   0  0  0  0  0  0  0  0  0  0  0  0
   -2.3792    2.0288   -1.6078 C   0  0  0  0  0  0  0  0  0  0  0  0
   -1.9612    2.8010   -0.5261 C   0  0  0  0  0  0  0  0  0  0  0  0
   -1.4192    2.1870    0.6034 C   0  0  0  0  0  0  0  0  0  0  0  0
   -1.2855    0.7879    0.6679 C   0  0  0  0  0  0  0  0  0  0  0  0
   -0.6508    0.1868    1.9068 C   0  0  0  0  0  0  0  0  0  0  0  0
    0.8664    0.4267    1.9511 C   0  0  0  0  0  0  0  0  0  0  0  0
    1.5881   -0.3178    0.8528 C   0  0  0  0  0  0  0  0  0  0  0  0
    1.8318    0.3242   -0.3743 C   0  0  0  0  0  0  0  0  0  0  0  0
    2.4576   -0.3601   -1.4193 C   0  0  0  0  0  0  0  0  0  0  0  0
    2.8442   -1.6911   -1.2520 C   0  0  0  0  0  0  0  0  0  0  0  0
    2.6031   -2.3426   -0.0402 C   0  0  0  0  0  0  0  0  0  0  0  0
    1.9744   -1.6660    1.0121 C   0  0  0  0  0  0  0  0  0  0  0  0
    1.7196   -2.3606    2.2311 N   0  0  0  0  0  1  0  0  0  0  0  0
   -1.9546   -1.9405   -1.3909 H   0  0  0  0  0  0  0  0  0  0  0  0
   -0.5771   -1.8238   -0.2554 H   0  0  0  0  0  0  0  0  0  0  0  0
   -2.2744   -1.9118    0.3755 H   0  0  0  0  0  0  0  0  0  0  0  0
   -2.5965    0.0607   -2.4151 H   0  0  0  0  0  0  0  0  0  0  0  0
   -2.7999    2.5077   -2.4826 H   0  0  0  0  0  0  0  0  0  0  0  0
   -2.0559    3.8786   -0.5628 H   0  0  0  0  0  0  0  0  0  0  0  0
   -1.0965    2.8059    1.4317 H   0  0  0  0  0  0  0  0  0  0  0  0
   -0.8605   -0.8980    2.0031 H   0  0  0  0  0  0  0  0  0  0  0  0
   -1.1061    0.6621    2.8028 H   0  0  0  0  0  0  0  0  0  0  0  0
    1.0795    1.5159    1.8806 H   0  0  0  0  0  0  0  0  0  0  0  0
    1.2534    0.1036    2.9414 H   0  0  0  0  0  0  0  0  0  0  0  0
    1.5282    1.3530   -0.5248 H   0  0  0  0  0  0  0  0  0  0  0  0
    2.6396    0.1413   -2.3610 H   0  0  0  0  0  0  0  0  0  0  0  0
    3.3274   -2.2197   -2.0635 H   0  0  0  0  0  0  0  0  0  0  0  0
    2.9001   -3.3771    0.0788 H   0  0  0  0  0  0  0  0  0  0  0  0
  1  2  1  0
  2  3  2  0
  3  4  1  0
  4  5  2  0
  5  6  1  0
  6  7  2  0
  7  8  1  0
  8  9  1  0
  9 10  1  0
 10 11  2  0
 11 12  1  0
 12 13  2  0
 13 14  1  0
 14 15  2  0
 15 16  1  0
  7  2  1  0
 15 10  1  0
  1 17  1  0
  1 18  1  0
  1 19  1  0
  3 20  1  0
  4 21  1  0
  5 22  1  0
  6 23  1  0
  8 24  1  0
  8 25  1  0
  9 26  1  0
  9 27  1  0
 11 28  1  0
 12 29  1  0
 13 30  1  0
 14 31  1  0
M  RAD  1  16   3
M  END
$$$$
