
     RDKit          3D

 31 32  0  0  0  0  0  0  0  0999 V2000
   -2.1497    1.7209   -0.6616 C   0  0  0  0  0  0  0  0  0  0  0  0
   -2.5429    0.4759    0.0903 C   0  0  0  0  0  0  0  0  0  0  0  0
   -3.9041    0.1311    0.1720 C   0  0  0  0  0  0  0  0  0  0  0  0
   -4.3083   -1.0091    0.8683 C   0  0  0  0  0  0  0  0  0  0  0  0
   -3.3619   -1.8183    1.4945 C   0  0  0  0  0  0  0  0  0  0  0  0
   -2.0076   -1.4870    1.4331 C   0  0  0  0  0  0  0  0  0  0  0  0
   -1.5811   -0.3353    0.7477 C   0  0  0  0  0  0  0  0  0  0  0  0
   -0.0997   -0.0385    0.6909 C   0  0  0  0  0  0  0  0  0  0  0  0
    0.5558   -0.7767   -0.4812 C   0  0  0  0  0  0  0  0  0  0  0  0
    2.0239   -0.4392   -0.5668 C   0  0  0  0  0  0  0  0  0  0  0  0
    2.4381    0.6462   -1.3584 C   0  0  0  0  0  0  0  0  0  0  0  0
    3.7892    0.9966   -1.4279 C   0  0  0  0  0  0  0  0  0  0  0  0
    4.7379    0.2749   -0.7008 C   0  0  0  0  0  0  0  0  0  0  0  0
    4.3375   -0.7960    0.1019 C   0  0  0  0  0  0  0  0  0  0  0  0
    2.9861   -1.1544    0.1781 C   0  0  0  0  0  0  0  0  0  0  0  0
    2.6013   -2.2410    1.0176 N   0  0  0  0  0  1  0  0  0  0  0  0
   -1.3400    1.4961   -1.3859 H   0  0  0  0  0  0  0  0  0  0  0  0
   -3.0042    2.1386   -1.2355 H   0  0  0  0  0  0  0  0  0  0  0  0
   -1.8015    2.4945    0.0543 H   0  0  0  0  0  0  0  0  0  0  0  0
   -4.6574    0.7446   -0.3067 H   0  0  0  0  0  0  0  0  0  0  0  0
   -5.3583   -1.2667    0.9205 H   0  0  0  0  0  0  0  0  0  0  0  0
   -3.6778   -2.7050    2.0289 H   0  0  0  0  0  0  0  0  0  0  0  0
   -1.2870   -2.1314    1.9220 H   0  0  0  0  0  0  0  0  0  0  0  0
    0.0830    1.0534    0.6042 H   0  0  0  0  0  0  0  0  0  0  0  0
    0.3802   -0.3589    1.6420 H   0  0  0  0  0  0  0  0  0  0  0  0
    0.0509   -0.4989   -1.4321 H   0  0  0  0  0  0  0  0  0  0  0  0
    0.4213   -1.8735   -0.3591 H   0  0  0  0  0  0  0  0  0  0  0  0
    1.7136    1.2226   -1.9207 H   0  0  0  0  0  0  0  0  0  0  0  0
    4.1003    1.8308   -2.0433 H   0  0  0  0  0  0  0  0  0  0  0  0
    5.7836    0.5488   -0.7550 H   0  0  0  0  0  0  0  0  0  0  0  0
    5.0787   -1.3455    0.6688 H   0  0  0  0  0  0  0  0  0  0  0  0
  1  2  1  0
  2  3  2  0
  3  4  1  0
  4  5  2  0
  5  6  1  0
  6  7  2  0
  7  8  1  0
  8  9  1  0
  9 10  1  0
 10 11  2  0
 11 12  1  0
 12 13  2  0
 13 14  1  0
 14 15  2  0
 15 16  1  0
  7  2  1  0
 15 10  1  0
  1 17  1  0
  1 18  1  0
  1 19  1  0
  3 20  1  0
  4 21  1  0
  5 22  1  0
  6 23  1  0
  8 24  1  0
  8 25  1  0
  9 26  1  0
  9 27  1  0
 11 28  1  0
 12 29  1  0
 13 30  1  0
 14 31  1  0
M  RAD  1  16   3
M  END
$$$$
