
     RDKit          3D

 31 32  0  0  0  0  0  0  0  0999 V2000
   -2.2583    1.5100   -0.9688 C   0  0  0  0  0  0  0  0  0  0  0  0
   -2.5902    0.2886   -0.1514 C   0  0  0  0  0  0  0  0  0  0  0  0
   -3.9117    0.1059    0.2939 C   0  0  0  0  0  0  0  0  0  0  0  0
   -4.2601   -1.0181    1.0448 C   0  0  0  0  0  0  0  0  0  0  0  0
   -3.2970   -1.9755    1.3586 C   0  0  0  0  0  0  0  0  0  0  0  0
   -1.9827   -1.8167    0.9168 C   0  0  0  0  0  0  0  0  0  0  0  0
   -1.6144   -0.6980    0.1480 C   0  0  0  0  0  0  0  0  0  0  0  0
   -0.1711   -0.5633   -0.2816 C   0  0  0  0  0  0  0  0  0  0  0  0
    0.6571    0.1225    0.8102 C   0  0  0  0  0  0  0  0  0  0  0  0
    2.0856    0.3018    0.3590 C   0  0  0  0  0  0  0  0  0  0  0  0
    2.4578    1.4854   -0.3022 C   0  0  0  0  0  0  0  0  0  0  0  0
    3.7676    1.6602   -0.7569 C   0  0  0  0  0  0  0  0  0  0  0  0
    4.7153    0.6529   -0.5658 C   0  0  0  0  0  0  0  0  0  0  0  0
    4.3545   -0.5344    0.0758 C   0  0  0  0  0  0  0  0  0  0  0  0
    3.0445   -0.7189    0.5345 C   0  0  0  0  0  0  0  0  0  0  0  0
    2.6975   -1.9466    1.1717 N   0  0  0  0  0  1  0  0  0  0  0  0
   -2.0549    1.2121   -2.0186 H   0  0  0  0  0  0  0  0  0  0  0  0
   -3.0957    2.2399   -0.9713 H   0  0  0  0  0  0  0  0  0  0  0  0
   -1.3687    2.0250   -0.5515 H   0  0  0  0  0  0  0  0  0  0  0  0
   -4.6770    0.8365    0.0625 H   0  0  0  0  0  0  0  0  0  0  0  0
   -5.2795   -1.1456    1.3859 H   0  0  0  0  0  0  0  0  0  0  0  0
   -3.5689   -2.8432    1.9458 H   0  0  0  0  0  0  0  0  0  0  0  0
   -1.2476   -2.5693    1.1753 H   0  0  0  0  0  0  0  0  0  0  0  0
   -0.0919    0.0035   -1.2333 H   0  0  0  0  0  0  0  0  0  0  0  0
    0.2517   -1.5720   -0.4851 H   0  0  0  0  0  0  0  0  0  0  0  0
    0.6230   -0.4798    1.7440 H   0  0  0  0  0  0  0  0  0  0  0  0
    0.2137    1.1124    1.0545 H   0  0  0  0  0  0  0  0  0  0  0  0
    1.7320    2.2724   -0.4673 H   0  0  0  0  0  0  0  0  0  0  0  0
    4.0470    2.5763   -1.2610 H   0  0  0  0  0  0  0  0  0  0  0  0
    5.7289    0.7899   -0.9200 H   0  0  0  0  0  0  0  0  0  0  0  0
    5.0936   -1.3139    0.2128 H   0  0  0  0  0  0  0  0  0  0  0  0
  1  2  1  0
  2  3  2  0
  3  4  1  0
  4  5  2  0
  5  6  1  0
  6  7  2  0
  7  8  1  0
  8  9  1  0
  9 10  1  0
 10 11  2  0
 11 12  1  0
 12 13  2  0
 13 14  1  0
 14 15  2  0
 15 16  1  0
  7  2  1  0
 15 10  1  0
  1 17  1  0
  1 18  1  0
  1 19  1  0
  3 20  1  0
  4 21  1  0
  5 22  1  0
  6 23  1  0
  8 24  1  0
  8 25  1  0
  9 26  1  0
  9 27  1  0
 11 28  1  0
 12 29  1  0
 13 30  1  0
 14 31  1  0
M  RAD  1  16   3
M  END
$$$$
