
     RDKit          3D

 31 32  0  0  0  0  0  0  0  0999 V2000
   -2.1698    1.9554   -0.0990 C   0  0  0  0  0  0  0  0  0  0  0  0
   -2.5616    0.5232    0.1573 C   0  0  0  0  0  0  0  0  0  0  0  0
   -3.8606    0.2449    0.6191 C   0  0  0  0  0  0  0  0  0  0  0  0
   -4.2639   -1.0699    0.8582 C   0  0  0  0  0  0  0  0  0  0  0  0
   -3.3791   -2.1239    0.6371 C   0  0  0  0  0  0  0  0  0  0  0  0
   -2.0894   -1.8683    0.1692 C   0  0  0  0  0  0  0  0  0  0  0  0
   -1.6681   -0.5518   -0.0903 C   0  0  0  0  0  0  0  0  0  0  0  0
   -0.2517   -0.3306   -0.5709 C   0  0  0  0  0  0  0  0  0  0  0  0
    0.7129   -0.2287    0.6154 C   0  0  0  0  0  0  0  0  0  0  0  0
    2.1174    0.0426    0.1358 C   0  0  0  0  0  0  0  0  0  0  0  0
    2.5565    1.3713    0.0003 C   0  0  0  0  0  0  0  0  0  0  0  0
    3.8425    1.6470   -0.4720 C   0  0  0  0  0  0  0  0  0  0  0  0
    4.6985    0.6013   -0.8232 C   0  0  0  0  0  0  0  0  0  0  0  0
    4.2689   -0.7229   -0.7081 C   0  0  0  0  0  0  0  0  0  0  0  0
    2.9821   -1.0091   -0.2362 C   0  0  0  0  0  0  0  0  0  0  0  0
    2.5620   -2.3687   -0.1436 N   0  0  0  0  0  1  0  0  0  0  0  0
   -2.9304    2.6635    0.2935 H   0  0  0  0  0  0  0  0  0  0  0  0
   -2.0694    2.1247   -1.1914 H   0  0  0  0  0  0  0  0  0  0  0  0
   -1.2075    2.1888    0.4014 H   0  0  0  0  0  0  0  0  0  0  0  0
   -4.5654    1.0476    0.7982 H   0  0  0  0  0  0  0  0  0  0  0  0
   -5.2647   -1.2714    1.2179 H   0  0  0  0  0  0  0  0  0  0  0  0
   -3.6928   -3.1420    0.8288 H   0  0  0  0  0  0  0  0  0  0  0  0
   -1.4149   -2.7006    0.0084 H   0  0  0  0  0  0  0  0  0  0  0  0
   -0.1838    0.5836   -1.1976 H   0  0  0  0  0  0  0  0  0  0  0  0
    0.0558   -1.1776   -1.2234 H   0  0  0  0  0  0  0  0  0  0  0  0
    0.3860    0.5851    1.2989 H   0  0  0  0  0  0  0  0  0  0  0  0
    0.6850   -1.1699    1.2065 H   0  0  0  0  0  0  0  0  0  0  0  0
    1.9013    2.1942    0.2589 H   0  0  0  0  0  0  0  0  0  0  0  0
    4.1743    2.6726   -0.5691 H   0  0  0  0  0  0  0  0  0  0  0  0
    5.6936    0.8172   -1.1901 H   0  0  0  0  0  0  0  0  0  0  0  0
    4.9362   -1.5278   -0.9902 H   0  0  0  0  0  0  0  0  0  0  0  0
  1  2  1  0
  2  3  2  0
  3  4  1  0
  4  5  2  0
  5  6  1  0
  6  7  2  0
  7  8  1  0
  8  9  1  0
  9 10  1  0
 10 11  2  0
 11 12  1  0
 12 13  2  0
 13 14  1  0
 14 15  2  0
 15 16  1  0
  7  2  1  0
 15 10  1  0
  1 17  1  0
  1 18  1  0
  1 19  1  0
  3 20  1  0
  4 21  1  0
  5 22  1  0
  6 23  1  0
  8 24  1  0
  8 25  1  0
  9 26  1  0
  9 27  1  0
 11 28  1  0
 12 29  1  0
 13 30  1  0
 14 31  1  0
M  RAD  1  16   3
M  END
$$$$
