
     RDKit          3D

 31 32  0  0  0  0  0  0  0  0999 V2000
   -1.8336    2.1132   -0.8447 C   0  0  0  0  0  0  0  0  0  0  0  0
   -2.4552    0.8792   -0.2440 C   0  0  0  0  0  0  0  0  0  0  0  0
   -3.8395    0.6755   -0.3870 C   0  0  0  0  0  0  0  0  0  0  0  0
   -4.4533   -0.4505    0.1642 C   0  0  0  0  0  0  0  0  0  0  0  0
   -3.6962   -1.3859    0.8675 C   0  0  0  0  0  0  0  0  0  0  0  0
   -2.3231   -1.1959    1.0286 C   0  0  0  0  0  0  0  0  0  0  0  0
   -1.6879   -0.0614    0.4922 C   0  0  0  0  0  0  0  0  0  0  0  0
   -0.1937    0.0807    0.6742 C   0  0  0  0  0  0  0  0  0  0  0  0
    0.5598   -0.6606   -0.4353 C   0  0  0  0  0  0  0  0  0  0  0  0
    2.0491   -0.4753   -0.2808 C   0  0  0  0  0  0  0  0  0  0  0  0
    2.6822    0.6001   -0.9283 C   0  0  0  0  0  0  0  0  0  0  0  0
    4.0553    0.8097   -0.7743 C   0  0  0  0  0  0  0  0  0  0  0  0
    4.8075   -0.0442    0.0346 C   0  0  0  0  0  0  0  0  0  0  0  0
    4.1878   -1.1072    0.6961 C   0  0  0  0  0  0  0  0  0  0  0  0
    2.8126   -1.3251    0.5482 C   0  0  0  0  0  0  0  0  0  0  0  0
    2.2011   -2.4072    1.2471 N   0  0  0  0  0  1  0  0  0  0  0  0
   -2.5459    2.6475   -1.5089 H   0  0  0  0  0  0  0  0  0  0  0  0
   -1.5267    2.8079   -0.0351 H   0  0  0  0  0  0  0  0  0  0  0  0
   -0.9477    1.8424   -1.4553 H   0  0  0  0  0  0  0  0  0  0  0  0
   -4.4481    1.3886   -0.9293 H   0  0  0  0  0  0  0  0  0  0  0  0
   -5.5187   -0.5987    0.0438 H   0  0  0  0  0  0  0  0  0  0  0  0
   -4.1741   -2.2609    1.2889 H   0  0  0  0  0  0  0  0  0  0  0  0
   -1.7512   -1.9367    1.5741 H   0  0  0  0  0  0  0  0  0  0  0  0
    0.1041    1.1504    0.6887 H   0  0  0  0  0  0  0  0  0  0  0  0
    0.1016   -0.3370    1.6621 H   0  0  0  0  0  0  0  0  0  0  0  0
    0.2357   -0.2826   -1.4294 H   0  0  0  0  0  0  0  0  0  0  0  0
    0.3035   -1.7421   -0.4080 H   0  0  0  0  0  0  0  0  0  0  0  0
    2.1112    1.2777   -1.5513 H   0  0  0  0  0  0  0  0  0  0  0  0
    4.5357    1.6374   -1.2799 H   0  0  0  0  0  0  0  0  0  0  0  0
    5.8706    0.1209    0.1536 H   0  0  0  0  0  0  0  0  0  0  0  0
    4.7770   -1.7600    1.3279 H   0  0  0  0  0  0  0  0  0  0  0  0
  1  2  1  0
  2  3  2  0
  3  4  1  0
  4  5  2  0
  5  6  1  0
  6  7  2  0
  7  8  1  0
  8  9  1  0
  9 10  1  0
 10 11  2  0
 11 12  1  0
 12 13  2  0
 13 14  1  0
 14 15  2  0
 15 16  1  0
  7  2  1  0
 15 10  1  0
  1 17  1  0
  1 18  1  0
  1 19  1  0
  3 20  1  0
  4 21  1  0
  5 22  1  0
  6 23  1  0
  8 24  1  0
  8 25  1  0
  9 26  1  0
  9 27  1  0
 11 28  1  0
 12 29  1  0
 13 30  1  0
 14 31  1  0
M  RAD  1  16   3
M  END
$$$$
