
     RDKit          3D

 31 32  0  0  0  0  0  0  0  0999 V2000
   -1.8059    0.4556    1.2126 C   0  0  0  0  0  0  0  0  0  0  0  0
   -1.6895    0.5003   -0.2887 C   0  0  0  0  0  0  0  0  0  0  0  0
   -2.1268    1.6521   -0.9676 C   0  0  0  0  0  0  0  0  0  0  0  0
   -2.0557    1.7287   -2.3591 C   0  0  0  0  0  0  0  0  0  0  0  0
   -1.5530    0.6565   -3.0933 C   0  0  0  0  0  0  0  0  0  0  0  0
   -1.1170   -0.4958   -2.4389 C   0  0  0  0  0  0  0  0  0  0  0  0
   -1.1758   -0.5933   -1.0365 C   0  0  0  0  0  0  0  0  0  0  0  0
   -0.6478   -1.8565   -0.3849 C   0  0  0  0  0  0  0  0  0  0  0  0
    0.8870   -1.9235   -0.4177 C   0  0  0  0  0  0  0  0  0  0  0  0
    1.5175   -0.8551    0.4441 C   0  0  0  0  0  0  0  0  0  0  0  0
    1.8649    0.3811   -0.1292 C   0  0  0  0  0  0  0  0  0  0  0  0
    2.4076    1.3991    0.6587 C   0  0  0  0  0  0  0  0  0  0  0  0
    2.6069    1.1958    2.0254 C   0  0  0  0  0  0  0  0  0  0  0  0
    2.2610   -0.0253    2.6088 C   0  0  0  0  0  0  0  0  0  0  0  0
    1.7142   -1.0508    1.8280 C   0  0  0  0  0  0  0  0  0  0  0  0
    1.3486   -2.2798    2.4520 N   0  0  0  0  0  1  0  0  0  0  0  0
   -0.8155    0.2596    1.6687 H   0  0  0  0  0  0  0  0  0  0  0  0
   -2.1785    1.4175    1.6247 H   0  0  0  0  0  0  0  0  0  0  0  0
   -2.5184   -0.3418    1.5103 H   0  0  0  0  0  0  0  0  0  0  0  0
   -2.5264    2.4966   -0.4198 H   0  0  0  0  0  0  0  0  0  0  0  0
   -2.3939    2.6213   -2.8695 H   0  0  0  0  0  0  0  0  0  0  0  0
   -1.4996    0.7185   -4.1725 H   0  0  0  0  0  0  0  0  0  0  0  0
   -0.7256   -1.3163   -3.0280 H   0  0  0  0  0  0  0  0  0  0  0  0
   -1.0047   -1.9725    0.6587 H   0  0  0  0  0  0  0  0  0  0  0  0
   -1.0478   -2.7334   -0.9390 H   0  0  0  0  0  0  0  0  0  0  0  0
    1.2475   -1.8332   -1.4659 H   0  0  0  0  0  0  0  0  0  0  0  0
    1.2114   -2.9275   -0.0690 H   0  0  0  0  0  0  0  0  0  0  0  0
    1.7064    0.5595   -1.1857 H   0  0  0  0  0  0  0  0  0  0  0  0
    2.6705    2.3481    0.2095 H   0  0  0  0  0  0  0  0  0  0  0  0
    3.0260    1.9865    2.6342 H   0  0  0  0  0  0  0  0  0  0  0  0
    2.4125   -0.1723    3.6708 H   0  0  0  0  0  0  0  0  0  0  0  0
  1  2  1  0
  2  3  2  0
  3  4  1  0
  4  5  2  0
  5  6  1  0
  6  7  2  0
  7  8  1  0
  8  9  1  0
  9 10  1  0
 10 11  2  0
 11 12  1  0
 12 13  2  0
 13 14  1  0
 14 15  2  0
 15 16  1  0
  7  2  1  0
 15 10  1  0
  1 17  1  0
  1 18  1  0
  1 19  1  0
  3 20  1  0
  4 21  1  0
  5 22  1  0
  6 23  1  0
  8 24  1  0
  8 25  1  0
  9 26  1  0
  9 27  1  0
 11 28  1  0
 12 29  1  0
 13 30  1  0
 14 31  1  0
M  RAD  1  16   3
M  END
$$$$
