
     RDKit          3D

 31 32  0  0  0  0  0  0  0  0999 V2000
    2.2558   -1.6351    1.0381 C   0  0  0  0  0  0  0  0  0  0  0  0
    2.5865   -0.2872    0.4515 C   0  0  0  0  0  0  0  0  0  0  0  0
    3.9170   -0.0102    0.0893 C   0  0  0  0  0  0  0  0  0  0  0  0
    4.2643    1.2306   -0.4477 C   0  0  0  0  0  0  0  0  0  0  0  0
    3.2909    2.2119   -0.6275 C   0  0  0  0  0  0  0  0  0  0  0  0
    1.9672    1.9592   -0.2646 C   0  0  0  0  0  0  0  0  0  0  0  0
    1.5994    0.7202    0.2903 C   0  0  0  0  0  0  0  0  0  0  0  0
    0.1467    0.4913    0.6410 C   0  0  0  0  0  0  0  0  0  0  0  0
   -0.6321   -0.0119   -0.5791 C   0  0  0  0  0  0  0  0  0  0  0  0
   -2.0698   -0.2881   -0.2143 C   0  0  0  0  0  0  0  0  0  0  0  0
   -2.4369   -1.5727    0.2232 C   0  0  0  0  0  0  0  0  0  0  0  0
   -3.7562   -1.8432    0.5963 C   0  0  0  0  0  0  0  0  0  0  0  0
   -4.7189   -0.8332    0.5465 C   0  0  0  0  0  0  0  0  0  0  0  0
   -4.3639    0.4516    0.1284 C   0  0  0  0  0  0  0  0  0  0  0  0
   -3.0445    0.7323   -0.2470 C   0  0  0  0  0  0  0  0  0  0  0  0
   -2.7042    2.0559   -0.6542 N   0  0  0  0  0  1  0  0  0  0  0  0
    1.3910   -2.0857    0.5091 H   0  0  0  0  0  0  0  0  0  0  0  0
    2.0133   -1.5235    2.1155 H   0  0  0  0  0  0  0  0  0  0  0  0
    3.1083   -2.3412    0.9456 H   0  0  0  0  0  0  0  0  0  0  0  0
    4.6904   -0.7572    0.2197 H   0  0  0  0  0  0  0  0  0  0  0  0
    5.2907    1.4306   -0.7270 H   0  0  0  0  0  0  0  0  0  0  0  0
    3.5621    3.1711   -1.0494 H   0  0  0  0  0  0  0  0  0  0  0  0
    1.2244    2.7329   -0.4168 H   0  0  0  0  0  0  0  0  0  0  0  0
    0.0501   -0.2304    1.4794 H   0  0  0  0  0  0  0  0  0  0  0  0
   -0.3040    1.4437    0.9980 H   0  0  0  0  0  0  0  0  0  0  0  0
   -0.1601   -0.9385   -0.9724 H   0  0  0  0  0  0  0  0  0  0  0  0
   -0.5819    0.7410   -1.3956 H   0  0  0  0  0  0  0  0  0  0  0  0
   -1.6999   -2.3647    0.2773 H   0  0  0  0  0  0  0  0  0  0  0  0
   -4.0314   -2.8361    0.9277 H   0  0  0  0  0  0  0  0  0  0  0  0
   -5.7399   -1.0445    0.8371 H   0  0  0  0  0  0  0  0  0  0  0  0
   -5.1149    1.2312    0.1003 H   0  0  0  0  0  0  0  0  0  0  0  0
  1  2  1  0
  2  3  2  0
  3  4  1  0
  4  5  2  0
  5  6  1  0
  6  7  2  0
  7  8  1  0
  8  9  1  0
  9 10  1  0
 10 11  2  0
 11 12  1  0
 12 13  2  0
 13 14  1  0
 14 15  2  0
 15 16  1  0
  7  2  1  0
 15 10  1  0
  1 17  1  0
  1 18  1  0
  1 19  1  0
  3 20  1  0
  4 21  1  0
  5 22  1  0
  6 23  1  0
  8 24  1  0
  8 25  1  0
  9 26  1  0
  9 27  1  0
 11 28  1  0
 12 29  1  0
 13 30  1  0
 14 31  1  0
M  RAD  1  16   3
M  END
$$$$
