
     RDKit          3D

 31 32  0  0  0  0  0  0  0  0999 V2000
   -1.9952    1.0874    1.8379 C   0  0  0  0  0  0  0  0  0  0  0  0
   -2.5038    0.5682    0.5181 C   0  0  0  0  0  0  0  0  0  0  0  0
   -3.8131    0.8908    0.1184 C   0  0  0  0  0  0  0  0  0  0  0  0
   -4.3234    0.4202   -1.0927 C   0  0  0  0  0  0  0  0  0  0  0  0
   -3.5367   -0.3805   -1.9190 C   0  0  0  0  0  0  0  0  0  0  0  0
   -2.2387   -0.7198   -1.5347 C   0  0  0  0  0  0  0  0  0  0  0  0
   -1.7107   -0.2665   -0.3124 C   0  0  0  0  0  0  0  0  0  0  0  0
   -0.2898   -0.6426    0.0418 C   0  0  0  0  0  0  0  0  0  0  0  0
    0.7020    0.3551   -0.5661 C   0  0  0  0  0  0  0  0  0  0  0  0
    2.1154    0.0072   -0.1694 C   0  0  0  0  0  0  0  0  0  0  0  0
    2.6644    0.5706    0.9957 C   0  0  0  0  0  0  0  0  0  0  0  0
    3.9604    0.2385    1.3996 C   0  0  0  0  0  0  0  0  0  0  0  0
    4.7167   -0.6659    0.6516 C   0  0  0  0  0  0  0  0  0  0  0  0
    4.1772   -1.2448   -0.4996 C   0  0  0  0  0  0  0  0  0  0  0  0
    2.8795   -0.9185   -0.9120 C   0  0  0  0  0  0  0  0  0  0  0  0
    2.3459   -1.5358   -2.0816 N   0  0  0  0  0  1  0  0  0  0  0  0
   -1.0074    1.5751    1.7072 H   0  0  0  0  0  0  0  0  0  0  0  0
   -2.6848    1.8417    2.2732 H   0  0  0  0  0  0  0  0  0  0  0  0
   -1.9010    0.2475    2.5576 H   0  0  0  0  0  0  0  0  0  0  0  0
   -4.4429    1.5115    0.7439 H   0  0  0  0  0  0  0  0  0  0  0  0
   -5.3310    0.6789   -1.3918 H   0  0  0  0  0  0  0  0  0  0  0  0
   -3.9331   -0.7393   -2.8601 H   0  0  0  0  0  0  0  0  0  0  0  0
   -1.6413   -1.3389   -2.1930 H   0  0  0  0  0  0  0  0  0  0  0  0
   -0.0683   -1.6625   -0.3434 H   0  0  0  0  0  0  0  0  0  0  0  0
   -0.1552   -0.6915    1.1430 H   0  0  0  0  0  0  0  0  0  0  0  0
    0.6043    0.3571   -1.6736 H   0  0  0  0  0  0  0  0  0  0  0  0
    0.4589    1.3848   -0.2242 H   0  0  0  0  0  0  0  0  0  0  0  0
    2.0872    1.2661    1.5927 H   0  0  0  0  0  0  0  0  0  0  0  0
    4.3772    0.6802    2.2955 H   0  0  0  0  0  0  0  0  0  0  0  0
    5.7197   -0.9227    0.9670 H   0  0  0  0  0  0  0  0  0  0  0  0
    4.7675   -1.9514   -1.0695 H   0  0  0  0  0  0  0  0  0  0  0  0
  1  2  1  0
  2  3  2  0
  3  4  1  0
  4  5  2  0
  5  6  1  0
  6  7  2  0
  7  8  1  0
  8  9  1  0
  9 10  1  0
 10 11  2  0
 11 12  1  0
 12 13  2  0
 13 14  1  0
 14 15  2  0
 15 16  1  0
  7  2  1  0
 15 10  1  0
  1 17  1  0
  1 18  1  0
  1 19  1  0
  3 20  1  0
  4 21  1  0
  5 22  1  0
  6 23  1  0
  8 24  1  0
  8 25  1  0
  9 26  1  0
  9 27  1  0
 11 28  1  0
 12 29  1  0
 13 30  1  0
 14 31  1  0
M  RAD  1  16   3
M  END
$$$$
