
     RDKit          3D

 31 32  0  0  0  0  0  0  0  0999 V2000
   -1.2894   -1.4102    1.2057 C   0  0  0  0  0  0  0  0  0  0  0  0
   -1.6746   -0.0932    0.5840 C   0  0  0  0  0  0  0  0  0  0  0  0
   -2.3258    0.8665    1.3801 C   0  0  0  0  0  0  0  0  0  0  0  0
   -2.7181    2.0921    0.8403 C   0  0  0  0  0  0  0  0  0  0  0  0
   -2.4718    2.3757   -0.5014 C   0  0  0  0  0  0  0  0  0  0  0  0
   -1.8298    1.4360   -1.3084 C   0  0  0  0  0  0  0  0  0  0  0  0
   -1.4221    0.1956   -0.7842 C   0  0  0  0  0  0  0  0  0  0  0  0
   -0.6929   -0.7643   -1.7039 C   0  0  0  0  0  0  0  0  0  0  0  0
    0.7462   -0.3074   -1.9897 C   0  0  0  0  0  0  0  0  0  0  0  0
    1.6117   -0.3607   -0.7528 C   0  0  0  0  0  0  0  0  0  0  0  0
    1.7351    0.7831    0.0556 C   0  0  0  0  0  0  0  0  0  0  0  0
    2.4941    0.7430    1.2279 C   0  0  0  0  0  0  0  0  0  0  0  0
    3.1350   -0.4380    1.6067 C   0  0  0  0  0  0  0  0  0  0  0  0
    3.0162   -1.5832    0.8157 C   0  0  0  0  0  0  0  0  0  0  0  0
    2.2559   -1.5535   -0.3596 C   0  0  0  0  0  0  0  0  0  0  0  0
    2.1319   -2.7422   -1.1373 N   0  0  0  0  0  1  0  0  0  0  0  0
   -1.5177   -1.4340    2.2925 H   0  0  0  0  0  0  0  0  0  0  0  0
   -0.2016   -1.5855    1.0903 H   0  0  0  0  0  0  0  0  0  0  0  0
   -1.8538   -2.2337    0.7206 H   0  0  0  0  0  0  0  0  0  0  0  0
   -2.5334    0.6676    2.4243 H   0  0  0  0  0  0  0  0  0  0  0  0
   -3.2168    2.8227    1.4639 H   0  0  0  0  0  0  0  0  0  0  0  0
   -2.7777    3.3269   -0.9176 H   0  0  0  0  0  0  0  0  0  0  0  0
   -1.6440    1.6780   -2.3477 H   0  0  0  0  0  0  0  0  0  0  0  0
   -1.2419   -0.8141   -2.6694 H   0  0  0  0  0  0  0  0  0  0  0  0
   -0.6845   -1.8008   -1.3095 H   0  0  0  0  0  0  0  0  0  0  0  0
    0.7400    0.7224   -2.4095 H   0  0  0  0  0  0  0  0  0  0  0  0
    1.1800   -0.9566   -2.7803 H   0  0  0  0  0  0  0  0  0  0  0  0
    1.2351    1.7043   -0.2176 H   0  0  0  0  0  0  0  0  0  0  0  0
    2.5822    1.6276    1.8452 H   0  0  0  0  0  0  0  0  0  0  0  0
    3.7212   -0.4673    2.5160 H   0  0  0  0  0  0  0  0  0  0  0  0
    3.5111   -2.4969    1.1203 H   0  0  0  0  0  0  0  0  0  0  0  0
  1  2  1  0
  2  3  2  0
  3  4  1  0
  4  5  2  0
  5  6  1  0
  6  7  2  0
  7  8  1  0
  8  9  1  0
  9 10  1  0
 10 11  2  0
 11 12  1  0
 12 13  2  0
 13 14  1  0
 14 15  2  0
 15 16  1  0
  7  2  1  0
 15 10  1  0
  1 17  1  0
  1 18  1  0
  1 19  1  0
  3 20  1  0
  4 21  1  0
  5 22  1  0
  6 23  1  0
  8 24  1  0
  8 25  1  0
  9 26  1  0
  9 27  1  0
 11 28  1  0
 12 29  1  0
 13 30  1  0
 14 31  1  0
M  RAD  1  16   3
M  END
$$$$
