
     RDKit          3D

 31 32  0  0  0  0  0  0  0  0999 V2000
   -1.4647   -0.7771    1.5348 C   0  0  0  0  0  0  0  0  0  0  0  0
   -1.7468    0.0605    0.3149 C   0  0  0  0  0  0  0  0  0  0  0  0
   -2.5197    1.2270    0.4586 C   0  0  0  0  0  0  0  0  0  0  0  0
   -2.8218    2.0219   -0.6478 C   0  0  0  0  0  0  0  0  0  0  0  0
   -2.3625    1.6623   -1.9131 C   0  0  0  0  0  0  0  0  0  0  0  0
   -1.5970    0.5076   -2.0770 C   0  0  0  0  0  0  0  0  0  0  0  0
   -1.2771   -0.3066   -0.9750 C   0  0  0  0  0  0  0  0  0  0  0  0
   -0.4072   -1.5251   -1.2149 C   0  0  0  0  0  0  0  0  0  0  0  0
    1.0583   -1.1442   -1.4768 C   0  0  0  0  0  0  0  0  0  0  0  0
    1.7127   -0.5440   -0.2549 C   0  0  0  0  0  0  0  0  0  0  0  0
    1.7019    0.8511   -0.0785 C   0  0  0  0  0  0  0  0  0  0  0  0
    2.2616    1.4243    1.0661 C   0  0  0  0  0  0  0  0  0  0  0  0
    2.8351    0.6126    2.0466 C   0  0  0  0  0  0  0  0  0  0  0  0
    2.8477   -0.7750    1.8866 C   0  0  0  0  0  0  0  0  0  0  0  0
    2.2871   -1.3590    0.7443 C   0  0  0  0  0  0  0  0  0  0  0  0
    2.2926   -2.7791    0.6158 N   0  0  0  0  0  1  0  0  0  0  0  0
   -1.8655   -0.3068    2.4578 H   0  0  0  0  0  0  0  0  0  0  0  0
   -1.9419   -1.7733    1.4248 H   0  0  0  0  0  0  0  0  0  0  0  0
   -0.3722   -0.9004    1.6715 H   0  0  0  0  0  0  0  0  0  0  0  0
   -2.8928    1.5249    1.4307 H   0  0  0  0  0  0  0  0  0  0  0  0
   -3.4160    2.9181   -0.5236 H   0  0  0  0  0  0  0  0  0  0  0  0
   -2.5989    2.2805   -2.7695 H   0  0  0  0  0  0  0  0  0  0  0  0
   -1.2462    0.2482   -3.0685 H   0  0  0  0  0  0  0  0  0  0  0  0
   -0.7929   -2.0642   -2.1075 H   0  0  0  0  0  0  0  0  0  0  0  0
   -0.4607   -2.2517   -0.3789 H   0  0  0  0  0  0  0  0  0  0  0  0
    1.6154   -2.0519   -1.7939 H   0  0  0  0  0  0  0  0  0  0  0  0
    1.1182   -0.4351   -2.3315 H   0  0  0  0  0  0  0  0  0  0  0  0
    1.2509    1.4945   -0.8239 H   0  0  0  0  0  0  0  0  0  0  0  0
    2.2472    2.4988    1.1946 H   0  0  0  0  0  0  0  0  0  0  0  0
    3.2667    1.0588    2.9332 H   0  0  0  0  0  0  0  0  0  0  0  0
    3.2885   -1.3976    2.6551 H   0  0  0  0  0  0  0  0  0  0  0  0
  1  2  1  0
  2  3  2  0
  3  4  1  0
  4  5  2  0
  5  6  1  0
  6  7  2  0
  7  8  1  0
  8  9  1  0
  9 10  1  0
 10 11  2  0
 11 12  1  0
 12 13  2  0
 13 14  1  0
 14 15  2  0
 15 16  1  0
  7  2  1  0
 15 10  1  0
  1 17  1  0
  1 18  1  0
  1 19  1  0
  3 20  1  0
  4 21  1  0
  5 22  1  0
  6 23  1  0
  8 24  1  0
  8 25  1  0
  9 26  1  0
  9 27  1  0
 11 28  1  0
 12 29  1  0
 13 30  1  0
 14 31  1  0
M  RAD  1  16   3
M  END
$$$$
