
     RDKit          3D

 34 36  0  0  0  0  0  0  0  0999 V2000
   -1.0559   -3.3956    1.6329 N   0  0  0  0  0  1  0  0  0  0  0  0
    0.3913   -3.4105    0.6902 S   0  0  0  0  0  0  0  0  0  0  0  0
    0.1532   -4.1493   -0.5967 O   0  0  0  0  0  0  0  0  0  0  0  0
    1.4564   -4.1352    1.4647 O   0  0  0  0  0  0  0  0  0  0  0  0
    0.9042   -1.7493    0.3374 C   0  0  0  0  0  0  0  0  0  0  0  0
    2.1436   -1.3184    0.8406 C   0  0  0  0  0  0  0  0  0  0  0  0
    2.6301   -0.0364    0.5584 C   0  0  0  0  0  0  0  0  0  0  0  0
    3.8702    0.3861    1.0646 C   0  0  0  0  0  0  0  0  0  0  0  0
    4.3498    1.6655    0.7699 C   0  0  0  0  0  0  0  0  0  0  0  0
    3.5987    2.5298   -0.0304 C   0  0  0  0  0  0  0  0  0  0  0  0
    2.3635    2.1199   -0.5401 C   0  0  0  0  0  0  0  0  0  0  0  0
    1.8714    0.8372   -0.2494 C   0  0  0  0  0  0  0  0  0  0  0  0
    0.6347    0.4174   -0.7515 C   0  0  0  0  0  0  0  0  0  0  0  0
    0.1247   -0.8603   -0.4525 C   0  0  0  0  0  0  0  0  0  0  0  0
   -1.2331   -1.2274   -1.0202 C   0  0  0  0  0  0  0  0  0  0  0  0
   -2.2984   -0.2679   -0.5503 C   0  0  0  0  0  0  0  0  0  0  0  0
   -2.8900    0.6376   -1.4482 C   0  0  0  0  0  0  0  0  0  0  0  0
   -3.8665    1.5345   -1.0037 C   0  0  0  0  0  0  0  0  0  0  0  0
   -4.2579    1.5362    0.3378 C   0  0  0  0  0  0  0  0  0  0  0  0
   -3.6722    0.6421    1.2377 C   0  0  0  0  0  0  0  0  0  0  0  0
   -2.6955   -0.2564    0.7977 C   0  0  0  0  0  0  0  0  0  0  0  0
    2.7399   -1.9855    1.4507 H   0  0  0  0  0  0  0  0  0  0  0  0
    4.4672   -0.2714    1.6855 H   0  0  0  0  0  0  0  0  0  0  0  0
    5.3059    1.9873    1.1621 H   0  0  0  0  0  0  0  0  0  0  0  0
    3.9743    3.5195   -0.2562 H   0  0  0  0  0  0  0  0  0  0  0  0
    1.7941    2.8037   -1.1585 H   0  0  0  0  0  0  0  0  0  0  0  0
    0.0574    1.0910   -1.3750 H   0  0  0  0  0  0  0  0  0  0  0  0
   -1.5559   -2.2483   -0.7465 H   0  0  0  0  0  0  0  0  0  0  0  0
   -1.1614   -1.2195   -2.1296 H   0  0  0  0  0  0  0  0  0  0  0  0
   -2.5939    0.6527   -2.4897 H   0  0  0  0  0  0  0  0  0  0  0  0
   -4.3187    2.2296   -1.6993 H   0  0  0  0  0  0  0  0  0  0  0  0
   -5.0132    2.2317    0.6802 H   0  0  0  0  0  0  0  0  0  0  0  0
   -3.9733    0.6466    2.2773 H   0  0  0  0  0  0  0  0  0  0  0  0
   -2.2446   -0.9370    1.5074 H   0  0  0  0  0  0  0  0  0  0  0  0
  1  2  1  0
  2  3  2  0
  2  4  2  0
  2  5  1  0
  5  6  2  0
  6  7  1  0
  7  8  2  0
  8  9  1  0
  9 10  2  0
 10 11  1  0
 11 12  2  0
 12 13  1  0
 13 14  2  0
 14 15  1  0
 15 16  1  0
 16 17  2  0
 17 18  1  0
 18 19  2  0
 19 20  1  0
 20 21  2  0
 14  5  1  0
 21 16  1  0
 12  7  1  0
  6 22  1  0
  8 23  1  0
  9 24  1  0
 10 25  1  0
 11 26  1  0
 13 27  1  0
 15 28  1  0
 15 29  1  0
 17 30  1  0
 18 31  1  0
 19 32  1  0
 20 33  1  0
 21 34  1  0
M  RAD  1   1   3
M  END
$$$$
