
     RDKit          3D

 34 36  0  0  0  0  0  0  0  0999 V2000
   -1.0586   -3.6008   -1.5492 N   0  0  0  0  0  1  0  0  0  0  0  0
    0.0271   -2.6991   -0.5509 S   0  0  0  0  0  0  0  0  0  0  0  0
    1.2178   -2.3068   -1.3779 O   0  0  0  0  0  0  0  0  0  0  0  0
    0.4622   -3.5903    0.5773 O   0  0  0  0  0  0  0  0  0  0  0  0
   -0.7722   -1.2420    0.0737 C   0  0  0  0  0  0  0  0  0  0  0  0
   -2.0042   -0.8726   -0.4920 C   0  0  0  0  0  0  0  0  0  0  0  0
   -2.6806    0.2753   -0.0627 C   0  0  0  0  0  0  0  0  0  0  0  0
   -3.9126    0.6354   -0.6329 C   0  0  0  0  0  0  0  0  0  0  0  0
   -4.5777    1.7856   -0.1990 C   0  0  0  0  0  0  0  0  0  0  0  0
   -4.0200    2.5832    0.8032 C   0  0  0  0  0  0  0  0  0  0  0  0
   -2.7940    2.2351    1.3772 C   0  0  0  0  0  0  0  0  0  0  0  0
   -2.1175    1.0810    0.9496 C   0  0  0  0  0  0  0  0  0  0  0  0
   -0.8879    0.7249    1.5145 C   0  0  0  0  0  0  0  0  0  0  0  0
   -0.2023   -0.4298    1.0927 C   0  0  0  0  0  0  0  0  0  0  0  0
    1.1374   -0.7321    1.7361 C   0  0  0  0  0  0  0  0  0  0  0  0
    2.2961   -0.3969    0.8300 C   0  0  0  0  0  0  0  0  0  0  0  0
    2.4086    0.8811    0.2524 C   0  0  0  0  0  0  0  0  0  0  0  0
    3.5012    1.1940   -0.5620 C   0  0  0  0  0  0  0  0  0  0  0  0
    4.4979    0.2427   -0.7933 C   0  0  0  0  0  0  0  0  0  0  0  0
    4.4076   -1.0209   -0.2045 C   0  0  0  0  0  0  0  0  0  0  0  0
    3.3171   -1.3385    0.6109 C   0  0  0  0  0  0  0  0  0  0  0  0
   -2.4405   -1.4759   -1.2778 H   0  0  0  0  0  0  0  0  0  0  0  0
   -4.3598    0.0293   -1.4118 H   0  0  0  0  0  0  0  0  0  0  0  0
   -5.5271    2.0595   -0.6408 H   0  0  0  0  0  0  0  0  0  0  0  0
   -4.5384    3.4733    1.1356 H   0  0  0  0  0  0  0  0  0  0  0  0
   -2.3760    2.8660    2.1525 H   0  0  0  0  0  0  0  0  0  0  0  0
   -0.4564    1.3552    2.2843 H   0  0  0  0  0  0  0  0  0  0  0  0
    1.2617   -0.1472    2.6732 H   0  0  0  0  0  0  0  0  0  0  0  0
    1.1680   -1.7910    2.0596 H   0  0  0  0  0  0  0  0  0  0  0  0
    1.6523    1.6346    0.4313 H   0  0  0  0  0  0  0  0  0  0  0  0
    3.5773    2.1762   -1.0103 H   0  0  0  0  0  0  0  0  0  0  0  0
    5.3433    0.4871   -1.4233 H   0  0  0  0  0  0  0  0  0  0  0  0
    5.1846   -1.7543   -0.3776 H   0  0  0  0  0  0  0  0  0  0  0  0
    3.2657   -2.3210    1.0633 H   0  0  0  0  0  0  0  0  0  0  0  0
  1  2  1  0
  2  3  2  0
  2  4  2  0
  2  5  1  0
  5  6  2  0
  6  7  1  0
  7  8  2  0
  8  9  1  0
  9 10  2  0
 10 11  1  0
 11 12  2  0
 12 13  1  0
 13 14  2  0
 14 15  1  0
 15 16  1  0
 16 17  2  0
 17 18  1  0
 18 19  2  0
 19 20  1  0
 20 21  2  0
 14  5  1  0
 21 16  1  0
 12  7  1  0
  6 22  1  0
  8 23  1  0
  9 24  1  0
 10 25  1  0
 11 26  1  0
 13 27  1  0
 15 28  1  0
 15 29  1  0
 17 30  1  0
 18 31  1  0
 19 32  1  0
 20 33  1  0
 21 34  1  0
M  RAD  1   1   3
M  END
$$$$
