
     RDKit          3D

 34 36  0  0  0  0  0  0  0  0999 V2000
   -0.8506   -0.1211    3.7927 N   0  0  0  0  0  1  0  0  0  0  0  0
    0.5820   -0.9547    3.3065 S   0  0  0  0  0  0  0  0  0  0  0  0
    0.3655   -2.4387    3.4043 O   0  0  0  0  0  0  0  0  0  0  0  0
    1.6951   -0.5736    4.2421 O   0  0  0  0  0  0  0  0  0  0  0  0
    1.0002   -0.5221    1.6377 C   0  0  0  0  0  0  0  0  0  0  0  0
    2.2218    0.1345    1.4106 C   0  0  0  0  0  0  0  0  0  0  0  0
    2.6351    0.4604    0.1133 C   0  0  0  0  0  0  0  0  0  0  0  0
    3.8579    1.1159   -0.1049 C   0  0  0  0  0  0  0  0  0  0  0  0
    4.2641    1.4294   -1.4051 C   0  0  0  0  0  0  0  0  0  0  0  0
    3.4567    1.0912   -2.4938 C   0  0  0  0  0  0  0  0  0  0  0  0
    2.2381    0.4382   -2.2886 C   0  0  0  0  0  0  0  0  0  0  0  0
    1.8194    0.1195   -0.9866 C   0  0  0  0  0  0  0  0  0  0  0  0
    0.6000   -0.5311   -0.7691 C   0  0  0  0  0  0  0  0  0  0  0  0
    0.1633   -0.8403    0.5332 C   0  0  0  0  0  0  0  0  0  0  0  0
   -1.1808   -1.5275    0.6809 C   0  0  0  0  0  0  0  0  0  0  0  0
   -2.2891   -0.6904    0.0916 C   0  0  0  0  0  0  0  0  0  0  0  0
   -2.9410   -1.0957   -1.0862 C   0  0  0  0  0  0  0  0  0  0  0  0
   -3.9577   -0.3083   -1.6356 C   0  0  0  0  0  0  0  0  0  0  0  0
   -4.3296    0.8880   -1.0167 C   0  0  0  0  0  0  0  0  0  0  0  0
   -3.6843    1.3002    0.1521 C   0  0  0  0  0  0  0  0  0  0  0  0
   -2.6672    0.5161    0.7050 C   0  0  0  0  0  0  0  0  0  0  0  0
    2.8615    0.3888    2.2466 H   0  0  0  0  0  0  0  0  0  0  0  0
    4.4978    1.3843    0.7272 H   0  0  0  0  0  0  0  0  0  0  0  0
    5.2071    1.9348   -1.5690 H   0  0  0  0  0  0  0  0  0  0  0  0
    3.7757    1.3357   -3.4988 H   0  0  0  0  0  0  0  0  0  0  0  0
    1.6243    0.1841   -3.1447 H   0  0  0  0  0  0  0  0  0  0  0  0
   -0.0213   -0.7944   -1.6179 H   0  0  0  0  0  0  0  0  0  0  0  0
   -1.1254   -2.5156    0.1743 H   0  0  0  0  0  0  0  0  0  0  0  0
   -1.4446   -1.7425    1.7323 H   0  0  0  0  0  0  0  0  0  0  0  0
   -2.6609   -2.0173   -1.5809 H   0  0  0  0  0  0  0  0  0  0  0  0
   -4.4562   -0.6251   -2.5426 H   0  0  0  0  0  0  0  0  0  0  0  0
   -5.1160    1.4966   -1.4440 H   0  0  0  0  0  0  0  0  0  0  0  0
   -3.9705    2.2288    0.6287 H   0  0  0  0  0  0  0  0  0  0  0  0
   -2.1705    0.8520    1.6054 H   0  0  0  0  0  0  0  0  0  0  0  0
  1  2  1  0
  2  3  2  0
  2  4  2  0
  2  5  1  0
  5  6  2  0
  6  7  1  0
  7  8  2  0
  8  9  1  0
  9 10  2  0
 10 11  1  0
 11 12  2  0
 12 13  1  0
 13 14  2  0
 14 15  1  0
 15 16  1  0
 16 17  2  0
 17 18  1  0
 18 19  2  0
 19 20  1  0
 20 21  2  0
 14  5  1  0
 21 16  1  0
 12  7  1  0
  6 22  1  0
  8 23  1  0
  9 24  1  0
 10 25  1  0
 11 26  1  0
 13 27  1  0
 15 28  1  0
 15 29  1  0
 17 30  1  0
 18 31  1  0
 19 32  1  0
 20 33  1  0
 21 34  1  0
M  RAD  1   1   3
M  END
$$$$
