
     RDKit          3D

 34 36  0  0  0  0  0  0  0  0999 V2000
   -0.4300   -3.4876   -2.2013 N   0  0  0  0  0  1  0  0  0  0  0  0
    0.3937   -2.6050   -0.9639 S   0  0  0  0  0  0  0  0  0  0  0  0
    1.6670   -2.0552   -1.5402 O   0  0  0  0  0  0  0  0  0  0  0  0
    0.7104   -3.5615    0.1501 O   0  0  0  0  0  0  0  0  0  0  0  0
   -0.6201   -1.2714   -0.3758 C   0  0  0  0  0  0  0  0  0  0  0  0
   -1.7683   -0.9411   -1.1154 C   0  0  0  0  0  0  0  0  0  0  0  0
   -2.6025    0.1119   -0.7218 C   0  0  0  0  0  0  0  0  0  0  0  0
   -3.7491    0.4333   -1.4665 C   0  0  0  0  0  0  0  0  0  0  0  0
   -4.5732    1.4890   -1.0663 C   0  0  0  0  0  0  0  0  0  0  0  0
   -4.2599    2.2302    0.0757 C   0  0  0  0  0  0  0  0  0  0  0  0
   -3.1209    1.9198    0.8239 C   0  0  0  0  0  0  0  0  0  0  0  0
   -2.2864    0.8606    0.4317 C   0  0  0  0  0  0  0  0  0  0  0  0
   -1.1415    0.5434    1.1710 C   0  0  0  0  0  0  0  0  0  0  0  0
   -0.2989   -0.5164    0.7859 C   0  0  0  0  0  0  0  0  0  0  0  0
    0.9363   -0.7794    1.6255 C   0  0  0  0  0  0  0  0  0  0  0  0
    2.1963   -0.2814    0.9616 C   0  0  0  0  0  0  0  0  0  0  0  0
    3.3164   -1.1240    0.8499 C   0  0  0  0  0  0  0  0  0  0  0  0
    4.4958   -0.6567    0.2619 C   0  0  0  0  0  0  0  0  0  0  0  0
    4.5737    0.6584   -0.2031 C   0  0  0  0  0  0  0  0  0  0  0  0
    3.4745    1.5111   -0.0744 C   0  0  0  0  0  0  0  0  0  0  0  0
    2.2930    1.0484    0.5125 C   0  0  0  0  0  0  0  0  0  0  0  0
   -2.0148   -1.5002   -2.0090 H   0  0  0  0  0  0  0  0  0  0  0  0
   -4.0073   -0.1300   -2.3554 H   0  0  0  0  0  0  0  0  0  0  0  0
   -5.4560    1.7333   -1.6428 H   0  0  0  0  0  0  0  0  0  0  0  0
   -4.9007    3.0471    0.3814 H   0  0  0  0  0  0  0  0  0  0  0  0
   -2.8929    2.5061    1.7062 H   0  0  0  0  0  0  0  0  0  0  0  0
   -0.8994    1.1304    2.0501 H   0  0  0  0  0  0  0  0  0  0  0  0
    0.8528   -0.2745    2.6124 H   0  0  0  0  0  0  0  0  0  0  0  0
    1.0036   -1.8583    1.8666 H   0  0  0  0  0  0  0  0  0  0  0  0
    3.2751   -2.1446    1.2093 H   0  0  0  0  0  0  0  0  0  0  0  0
    5.3506   -1.3140    0.1693 H   0  0  0  0  0  0  0  0  0  0  0  0
    5.4878    1.0186   -0.6570 H   0  0  0  0  0  0  0  0  0  0  0  0
    3.5394    2.5328   -0.4256 H   0  0  0  0  0  0  0  0  0  0  0  0
    1.4557    1.7266    0.6159 H   0  0  0  0  0  0  0  0  0  0  0  0
  1  2  1  0
  2  3  2  0
  2  4  2  0
  2  5  1  0
  5  6  2  0
  6  7  1  0
  7  8  2  0
  8  9  1  0
  9 10  2  0
 10 11  1  0
 11 12  2  0
 12 13  1  0
 13 14  2  0
 14 15  1  0
 15 16  1  0
 16 17  2  0
 17 18  1  0
 18 19  2  0
 19 20  1  0
 20 21  2  0
 14  5  1  0
 21 16  1  0
 12  7  1  0
  6 22  1  0
  8 23  1  0
  9 24  1  0
 10 25  1  0
 11 26  1  0
 13 27  1  0
 15 28  1  0
 15 29  1  0
 17 30  1  0
 18 31  1  0
 19 32  1  0
 20 33  1  0
 21 34  1  0
M  RAD  1   1   3
M  END
$$$$
