
     RDKit          3D

 34 36  0  0  0  0  0  0  0  0999 V2000
   -1.2785   -1.3666   -3.5750 N   0  0  0  0  0  1  0  0  0  0  0  0
    0.1151   -2.1461   -2.9164 S   0  0  0  0  0  0  0  0  0  0  0  0
   -0.2491   -3.5250   -2.4425 O   0  0  0  0  0  0  0  0  0  0  0  0
    1.1470   -2.2731   -4.0020 O   0  0  0  0  0  0  0  0  0  0  0  0
    0.7567   -1.1999   -1.5599 C   0  0  0  0  0  0  0  0  0  0  0  0
    2.0522   -0.6681   -1.6781 C   0  0  0  0  0  0  0  0  0  0  0  0
    2.6372    0.0465   -0.6260 C   0  0  0  0  0  0  0  0  0  0  0  0
    3.9328    0.5739   -0.7521 C   0  0  0  0  0  0  0  0  0  0  0  0
    4.5099    1.2791    0.3077 C   0  0  0  0  0  0  0  0  0  0  0  0
    3.8017    1.4617    1.4981 C   0  0  0  0  0  0  0  0  0  0  0  0
    2.5120    0.9407    1.6350 C   0  0  0  0  0  0  0  0  0  0  0  0
    1.9218    0.2317    0.5762 C   0  0  0  0  0  0  0  0  0  0  0  0
    0.6301   -0.2913    0.7009 C   0  0  0  0  0  0  0  0  0  0  0  0
    0.0230   -0.9893   -0.3603 C   0  0  0  0  0  0  0  0  0  0  0  0
   -1.3877   -1.5051   -0.1486 C   0  0  0  0  0  0  0  0  0  0  0  0
   -2.3395   -0.3772    0.1651 C   0  0  0  0  0  0  0  0  0  0  0  0
   -2.8901   -0.2446    1.4517 C   0  0  0  0  0  0  0  0  0  0  0  0
   -3.7604    0.8112    1.7405 C   0  0  0  0  0  0  0  0  0  0  0  0
   -4.0857    1.7420    0.7504 C   0  0  0  0  0  0  0  0  0  0  0  0
   -3.5399    1.6198   -0.5301 C   0  0  0  0  0  0  0  0  0  0  0  0
   -2.6694    0.5658   -0.8232 C   0  0  0  0  0  0  0  0  0  0  0  0
    2.6150   -0.8158   -2.5915 H   0  0  0  0  0  0  0  0  0  0  0  0
    4.4976    0.4406   -1.6672 H   0  0  0  0  0  0  0  0  0  0  0  0
    5.5086    1.6841    0.2065 H   0  0  0  0  0  0  0  0  0  0  0  0
    4.2530    2.0081    2.3161 H   0  0  0  0  0  0  0  0  0  0  0  0
    1.9771    1.0925    2.5650 H   0  0  0  0  0  0  0  0  0  0  0  0
    0.0861   -0.1497    1.6283 H   0  0  0  0  0  0  0  0  0  0  0  0
   -1.7868   -2.0480   -1.0245 H   0  0  0  0  0  0  0  0  0  0  0  0
   -1.3685   -2.2433    0.6825 H   0  0  0  0  0  0  0  0  0  0  0  0
   -2.6438   -0.9544    2.2316 H   0  0  0  0  0  0  0  0  0  0  0  0
   -4.1814    0.9086    2.7329 H   0  0  0  0  0  0  0  0  0  0  0  0
   -4.7587    2.5591    0.9760 H   0  0  0  0  0  0  0  0  0  0  0  0
   -3.7896    2.3434   -1.2953 H   0  0  0  0  0  0  0  0  0  0  0  0
   -2.2476    0.4887   -1.8165 H   0  0  0  0  0  0  0  0  0  0  0  0
  1  2  1  0
  2  3  2  0
  2  4  2  0
  2  5  1  0
  5  6  2  0
  6  7  1  0
  7  8  2  0
  8  9  1  0
  9 10  2  0
 10 11  1  0
 11 12  2  0
 12 13  1  0
 13 14  2  0
 14 15  1  0
 15 16  1  0
 16 17  2  0
 17 18  1  0
 18 19  2  0
 19 20  1  0
 20 21  2  0
 14  5  1  0
 21 16  1  0
 12  7  1  0
  6 22  1  0
  8 23  1  0
  9 24  1  0
 10 25  1  0
 11 26  1  0
 13 27  1  0
 15 28  1  0
 15 29  1  0
 17 30  1  0
 18 31  1  0
 19 32  1  0
 20 33  1  0
 21 34  1  0
M  RAD  1   1   3
M  END
$$$$
