
     RDKit          3D

 34 36  0  0  0  0  0  0  0  0999 V2000
    0.8279   -4.0434    0.6509 N   0  0  0  0  0  1  0  0  0  0  0  0
   -0.1541   -2.8133   -0.0638 S   0  0  0  0  0  0  0  0  0  0  0  0
   -0.5188   -3.2633   -1.4497 O   0  0  0  0  0  0  0  0  0  0  0  0
   -1.3973   -2.6572    0.7644 O   0  0  0  0  0  0  0  0  0  0  0  0
    0.7256   -1.2720   -0.1163 C   0  0  0  0  0  0  0  0  0  0  0  0
    1.9171   -1.1681    0.6212 C   0  0  0  0  0  0  0  0  0  0  0  0
    2.6517    0.0233    0.6420 C   0  0  0  0  0  0  0  0  0  0  0  0
    3.8427    0.1170    1.3807 C   0  0  0  0  0  0  0  0  0  0  0  0
    4.5664    1.3126    1.3972 C   0  0  0  0  0  0  0  0  0  0  0  0
    4.1085    2.4205    0.6800 C   0  0  0  0  0  0  0  0  0  0  0  0
    2.9242    2.3391   -0.0578 C   0  0  0  0  0  0  0  0  0  0  0  0
    2.1894    1.1425   -0.0823 C   0  0  0  0  0  0  0  0  0  0  0  0
    1.0006    1.0507   -0.8145 C   0  0  0  0  0  0  0  0  0  0  0  0
    0.2572   -0.1442   -0.8454 C   0  0  0  0  0  0  0  0  0  0  0  0
   -1.0339   -0.1542   -1.6410 C   0  0  0  0  0  0  0  0  0  0  0  0
   -2.2528   -0.0794   -0.7550 C   0  0  0  0  0  0  0  0  0  0  0  0
   -2.3811    0.9423    0.2036 C   0  0  0  0  0  0  0  0  0  0  0  0
   -3.5273    1.0229    1.0002 C   0  0  0  0  0  0  0  0  0  0  0  0
   -4.5609    0.0973    0.8365 C   0  0  0  0  0  0  0  0  0  0  0  0
   -4.4535   -0.9062   -0.1294 C   0  0  0  0  0  0  0  0  0  0  0  0
   -3.3093   -0.9907   -0.9287 C   0  0  0  0  0  0  0  0  0  0  0  0
    2.2757   -2.0159    1.1908 H   0  0  0  0  0  0  0  0  0  0  0  0
    4.2126   -0.7318    1.9436 H   0  0  0  0  0  0  0  0  0  0  0  0
    5.4839    1.3805    1.9675 H   0  0  0  0  0  0  0  0  0  0  0  0
    4.6721    3.3444    0.6963 H   0  0  0  0  0  0  0  0  0  0  0  0
    2.5836    3.2087   -0.6072 H   0  0  0  0  0  0  0  0  0  0  0  0
    0.6462    1.9185   -1.3598 H   0  0  0  0  0  0  0  0  0  0  0  0
   -1.0699    0.7109   -2.3382 H   0  0  0  0  0  0  0  0  0  0  0  0
   -1.0633   -1.0457   -2.2976 H   0  0  0  0  0  0  0  0  0  0  0  0
   -1.5958    1.6756    0.3351 H   0  0  0  0  0  0  0  0  0  0  0  0
   -3.6160    1.8062    1.7418 H   0  0  0  0  0  0  0  0  0  0  0  0
   -5.4477    0.1618    1.4536 H   0  0  0  0  0  0  0  0  0  0  0  0
   -5.2584   -1.6177   -0.2611 H   0  0  0  0  0  0  0  0  0  0  0  0
   -3.2450   -1.7719   -1.6759 H   0  0  0  0  0  0  0  0  0  0  0  0
  1  2  1  0
  2  3  2  0
  2  4  2  0
  2  5  1  0
  5  6  2  0
  6  7  1  0
  7  8  2  0
  8  9  1  0
  9 10  2  0
 10 11  1  0
 11 12  2  0
 12 13  1  0
 13 14  2  0
 14 15  1  0
 15 16  1  0
 16 17  2  0
 17 18  1  0
 18 19  2  0
 19 20  1  0
 20 21  2  0
 14  5  1  0
 21 16  1  0
 12  7  1  0
  6 22  1  0
  8 23  1  0
  9 24  1  0
 10 25  1  0
 11 26  1  0
 13 27  1  0
 15 28  1  0
 15 29  1  0
 17 30  1  0
 18 31  1  0
 19 32  1  0
 20 33  1  0
 21 34  1  0
M  RAD  1   1   3
M  END
$$$$
