
     RDKit          3D

 34 36  0  0  0  0  0  0  0  0999 V2000
    0.7096    3.5464   -1.4292 N   0  0  0  0  0  1  0  0  0  0  0  0
   -0.6260    2.6989   -2.1231 S   0  0  0  0  0  0  0  0  0  0  0  0
   -0.2867    2.2735   -3.5240 O   0  0  0  0  0  0  0  0  0  0  0  0
   -1.8033    3.6317   -2.1810 O   0  0  0  0  0  0  0  0  0  0  0  0
   -1.0146    1.2712   -1.1445 C   0  0  0  0  0  0  0  0  0  0  0  0
   -2.2784    1.2124   -0.5325 C   0  0  0  0  0  0  0  0  0  0  0  0
   -2.6673    0.0930    0.2128 C   0  0  0  0  0  0  0  0  0  0  0  0
   -3.9325    0.0420    0.8205 C   0  0  0  0  0  0  0  0  0  0  0  0
   -4.3133   -1.0841    1.5558 C   0  0  0  0  0  0  0  0  0  0  0  0
   -3.4380   -2.1648    1.6889 C   0  0  0  0  0  0  0  0  0  0  0  0
   -2.1767   -2.1253    1.0879 C   0  0  0  0  0  0  0  0  0  0  0  0
   -1.7832   -0.9985    0.3480 C   0  0  0  0  0  0  0  0  0  0  0  0
   -0.5217   -0.9467   -0.2551 C   0  0  0  0  0  0  0  0  0  0  0  0
   -0.1111    0.1849   -0.9852 C   0  0  0  0  0  0  0  0  0  0  0  0
    1.2803    0.1670   -1.5887 C   0  0  0  0  0  0  0  0  0  0  0  0
    2.3347   -0.0077   -0.5238 C   0  0  0  0  0  0  0  0  0  0  0  0
    2.5836    1.0207    0.4010 C   0  0  0  0  0  0  0  0  0  0  0  0
    3.5502    0.8548    1.3974 C   0  0  0  0  0  0  0  0  0  0  0  0
    4.2735   -0.3379    1.4800 C   0  0  0  0  0  0  0  0  0  0  0  0
    4.0301   -1.3674    0.5671 C   0  0  0  0  0  0  0  0  0  0  0  0
    3.0643   -1.2058   -0.4312 C   0  0  0  0  0  0  0  0  0  0  0  0
   -2.9696    2.0390   -0.6409 H   0  0  0  0  0  0  0  0  0  0  0  0
   -4.6250    0.8700    0.7265 H   0  0  0  0  0  0  0  0  0  0  0  0
   -5.2891   -1.1194    2.0228 H   0  0  0  0  0  0  0  0  0  0  0  0
   -3.7375   -3.0348    2.2589 H   0  0  0  0  0  0  0  0  0  0  0  0
   -1.5105   -2.9722    1.2022 H   0  0  0  0  0  0  0  0  0  0  0  0
    0.1524   -1.7897   -0.1516 H   0  0  0  0  0  0  0  0  0  0  0  0
    1.3297   -0.6620   -2.3278 H   0  0  0  0  0  0  0  0  0  0  0  0
    1.5205    1.0871   -2.1518 H   0  0  0  0  0  0  0  0  0  0  0  0
    2.0252    1.9462    0.3545 H   0  0  0  0  0  0  0  0  0  0  0  0
    3.7368    1.6502    2.1073 H   0  0  0  0  0  0  0  0  0  0  0  0
    5.0208   -0.4652    2.2525 H   0  0  0  0  0  0  0  0  0  0  0  0
    4.5889   -2.2920    0.6338 H   0  0  0  0  0  0  0  0  0  0  0  0
    2.8839   -2.0152   -1.1275 H   0  0  0  0  0  0  0  0  0  0  0  0
  1  2  1  0
  2  3  2  0
  2  4  2  0
  2  5  1  0
  5  6  2  0
  6  7  1  0
  7  8  2  0
  8  9  1  0
  9 10  2  0
 10 11  1  0
 11 12  2  0
 12 13  1  0
 13 14  2  0
 14 15  1  0
 15 16  1  0
 16 17  2  0
 17 18  1  0
 18 19  2  0
 19 20  1  0
 20 21  2  0
 14  5  1  0
 21 16  1  0
 12  7  1  0
  6 22  1  0
  8 23  1  0
  9 24  1  0
 10 25  1  0
 11 26  1  0
 13 27  1  0
 15 28  1  0
 15 29  1  0
 17 30  1  0
 18 31  1  0
 19 32  1  0
 20 33  1  0
 21 34  1  0
M  RAD  1   1   3
M  END
$$$$
