
     RDKit          3D

 31 32  0  0  0  0  0  0  0  0999 V2000
    1.0768   -0.4320   -2.9261 C   0  0  0  0  0  0  0  0  0  0  0  0
    0.3668    0.0513   -1.6549 C   0  0  0  0  0  0  0  0  0  0  0  0
   -0.9084   -0.7770   -1.3892 C   0  0  0  0  0  0  0  0  0  0  0  0
   -1.6896   -0.2366   -0.2123 C   0  0  0  0  0  0  0  0  0  0  0  0
   -1.5187   -0.8144    1.0584 C   0  0  0  0  0  0  0  0  0  0  0  0
   -2.1976   -0.3017    2.1666 C   0  0  0  0  0  0  0  0  0  0  0  0
   -3.0502    0.7940    2.0199 C   0  0  0  0  0  0  0  0  0  0  0  0
   -3.2243    1.3815    0.7647 C   0  0  0  0  0  0  0  0  0  0  0  0
   -2.5470    0.8759   -0.3514 C   0  0  0  0  0  0  0  0  0  0  0  0
   -2.7344    1.5002   -1.6197 N   0  0  0  0  0  1  0  0  0  0  0  0
    1.3100    0.0273   -0.4641 C   0  0  0  0  0  0  0  0  0  0  0  0
    1.9170   -1.1712   -0.0398 C   0  0  0  0  0  0  0  0  0  0  0  0
    2.7554   -1.1820    1.0787 C   0  0  0  0  0  0  0  0  0  0  0  0
    2.9943   -0.0024    1.7871 C   0  0  0  0  0  0  0  0  0  0  0  0
    2.3936    1.1907    1.3795 C   0  0  0  0  0  0  0  0  0  0  0  0
    1.5543    1.2076    0.2616 C   0  0  0  0  0  0  0  0  0  0  0  0
    2.0034    0.1579   -3.0937 H   0  0  0  0  0  0  0  0  0  0  0  0
    0.4144   -0.2926   -3.8071 H   0  0  0  0  0  0  0  0  0  0  0  0
    1.3425   -1.5078   -2.8544 H   0  0  0  0  0  0  0  0  0  0  0  0
    0.0527    1.1005   -1.8545 H   0  0  0  0  0  0  0  0  0  0  0  0
   -0.6433   -1.8433   -1.2165 H   0  0  0  0  0  0  0  0  0  0  0  0
   -1.5557   -0.7635   -2.2932 H   0  0  0  0  0  0  0  0  0  0  0  0
   -0.8538   -1.6587    1.1927 H   0  0  0  0  0  0  0  0  0  0  0  0
   -2.0597   -0.7524    3.1409 H   0  0  0  0  0  0  0  0  0  0  0  0
   -3.5744    1.1902    2.8800 H   0  0  0  0  0  0  0  0  0  0  0  0
   -3.8843    2.2337    0.6604 H   0  0  0  0  0  0  0  0  0  0  0  0
    1.7351   -2.0989   -0.5662 H   0  0  0  0  0  0  0  0  0  0  0  0
    3.2171   -2.1071    1.3989 H   0  0  0  0  0  0  0  0  0  0  0  0
    3.6423   -0.0135    2.6540 H   0  0  0  0  0  0  0  0  0  0  0  0
    2.5756    2.1033    1.9323 H   0  0  0  0  0  0  0  0  0  0  0  0
    1.0905    2.1409   -0.0324 H   0  0  0  0  0  0  0  0  0  0  0  0
  1  2  1  0
  2  3  1  0
  3  4  1  0
  4  5  2  0
  5  6  1  0
  6  7  2  0
  7  8  1  0
  8  9  2  0
  9 10  1  0
  2 11  1  0
 11 12  2  0
 12 13  1  0
 13 14  2  0
 14 15  1  0
 15 16  2  0
  9  4  1  0
 16 11  1  0
  1 17  1  0
  1 18  1  0
  1 19  1  0
  2 20  1  0
  3 21  1  0
  3 22  1  0
  5 23  1  0
  6 24  1  0
  7 25  1  0
  8 26  1  0
 12 27  1  0
 13 28  1  0
 14 29  1  0
 15 30  1  0
 16 31  1  0
M  RAD  1  10   3
M  END
$$$$
