
     RDKit          3D

 31 32  0  0  0  0  0  0  0  0999 V2000
    0.3300   -2.3428    1.2048 C   0  0  0  0  0  0  0  0  0  0  0  0
    0.6969   -0.8945    1.5666 C   0  0  0  0  0  0  0  0  0  0  0  0
   -0.5333   -0.0493    1.9734 C   0  0  0  0  0  0  0  0  0  0  0  0
   -1.5080    0.2108    0.8430 C   0  0  0  0  0  0  0  0  0  0  0  0
   -1.3129    1.3252    0.0066 C   0  0  0  0  0  0  0  0  0  0  0  0
   -2.1835    1.5761   -1.0565 C   0  0  0  0  0  0  0  0  0  0  0  0
   -3.2642    0.7250   -1.2916 C   0  0  0  0  0  0  0  0  0  0  0  0
   -3.4801   -0.3766   -0.4608 C   0  0  0  0  0  0  0  0  0  0  0  0
   -2.6123   -0.6379    0.6064 C   0  0  0  0  0  0  0  0  0  0  0  0
   -2.8698   -1.7594    1.4485 N   0  0  0  0  0  1  0  0  0  0  0  0
    1.5384   -0.2082    0.5003 C   0  0  0  0  0  0  0  0  0  0  0  0
    2.5699    0.6644    0.8949 C   0  0  0  0  0  0  0  0  0  0  0  0
    3.3327    1.3419   -0.0607 C   0  0  0  0  0  0  0  0  0  0  0  0
    3.0688    1.1671   -1.4204 C   0  0  0  0  0  0  0  0  0  0  0  0
    2.0381    0.3180   -1.8273 C   0  0  0  0  0  0  0  0  0  0  0  0
    1.2729   -0.3637   -0.8765 C   0  0  0  0  0  0  0  0  0  0  0  0
   -0.1439   -2.8411    2.0772 H   0  0  0  0  0  0  0  0  0  0  0  0
    1.2468   -2.9114    0.9393 H   0  0  0  0  0  0  0  0  0  0  0  0
   -0.3773   -2.3905    0.3528 H   0  0  0  0  0  0  0  0  0  0  0  0
    1.3255   -0.9800    2.4819 H   0  0  0  0  0  0  0  0  0  0  0  0
   -0.1771    0.9243    2.3771 H   0  0  0  0  0  0  0  0  0  0  0  0
   -1.0543   -0.5448    2.8209 H   0  0  0  0  0  0  0  0  0  0  0  0
   -0.4781    1.9952    0.1724 H   0  0  0  0  0  0  0  0  0  0  0  0
   -2.0193    2.4314   -1.6991 H   0  0  0  0  0  0  0  0  0  0  0  0
   -3.9379    0.9214   -2.1156 H   0  0  0  0  0  0  0  0  0  0  0  0
   -4.3257   -1.0273   -0.6457 H   0  0  0  0  0  0  0  0  0  0  0  0
    2.7818    0.8243    1.9448 H   0  0  0  0  0  0  0  0  0  0  0  0
    4.1261    2.0075    0.2541 H   0  0  0  0  0  0  0  0  0  0  0  0
    3.6583    1.6952   -2.1586 H   0  0  0  0  0  0  0  0  0  0  0  0
    1.8261    0.1931   -2.8813 H   0  0  0  0  0  0  0  0  0  0  0  0
    0.4652   -0.9934   -1.2221 H   0  0  0  0  0  0  0  0  0  0  0  0
  1  2  1  0
  2  3  1  0
  3  4  1  0
  4  5  2  0
  5  6  1  0
  6  7  2  0
  7  8  1  0
  8  9  2  0
  9 10  1  0
  2 11  1  0
 11 12  2  0
 12 13  1  0
 13 14  2  0
 14 15  1  0
 15 16  2  0
  9  4  1  0
 16 11  1  0
  1 17  1  0
  1 18  1  0
  1 19  1  0
  2 20  1  0
  3 21  1  0
  3 22  1  0
  5 23  1  0
  6 24  1  0
  7 25  1  0
  8 26  1  0
 12 27  1  0
 13 28  1  0
 14 29  1  0
 15 30  1  0
 16 31  1  0
M  RAD  1  10   3
M  END
$$$$
