
     RDKit          3D

 31 32  0  0  0  0  0  0  0  0999 V2000
    0.0917   -2.2060   -0.5709 C   0  0  0  0  0  0  0  0  0  0  0  0
    0.6823   -0.8850   -1.1033 C   0  0  0  0  0  0  0  0  0  0  0  0
   -0.4266    0.0757   -1.6227 C   0  0  0  0  0  0  0  0  0  0  0  0
   -1.6391    0.3239   -0.7266 C   0  0  0  0  0  0  0  0  0  0  0  0
   -1.5540    0.3036    0.6826 C   0  0  0  0  0  0  0  0  0  0  0  0
   -2.6737    0.5776    1.4718 C   0  0  0  0  0  0  0  0  0  0  0  0
   -3.8916    0.8968    0.8747 C   0  0  0  0  0  0  0  0  0  0  0  0
   -3.9918    0.9518   -0.5148 C   0  0  0  0  0  0  0  0  0  0  0  0
   -2.8770    0.6789   -1.3162 C   0  0  0  0  0  0  0  0  0  0  0  0
   -3.0128    0.7788   -2.7327 N   0  0  0  0  0  1  0  0  0  0  0  0
    1.7159   -0.2803   -0.1489 C   0  0  0  0  0  0  0  0  0  0  0  0
    2.8278   -1.0624    0.2276 C   0  0  0  0  0  0  0  0  0  0  0  0
    3.8159   -0.5472    1.0711 C   0  0  0  0  0  0  0  0  0  0  0  0
    3.7225    0.7625    1.5408 C   0  0  0  0  0  0  0  0  0  0  0  0
    2.6456    1.5627    1.1600 C   0  0  0  0  0  0  0  0  0  0  0  0
    1.6545    1.0544    0.3150 C   0  0  0  0  0  0  0  0  0  0  0  0
    0.8568   -3.0098   -0.5892 H   0  0  0  0  0  0  0  0  0  0  0  0
   -0.2691   -2.1028    0.4719 H   0  0  0  0  0  0  0  0  0  0  0  0
   -0.7520   -2.5414   -1.2112 H   0  0  0  0  0  0  0  0  0  0  0  0
    1.2641   -1.1615   -2.0120 H   0  0  0  0  0  0  0  0  0  0  0  0
    0.0135    1.0482   -1.9274 H   0  0  0  0  0  0  0  0  0  0  0  0
   -0.7917   -0.3779   -2.5703 H   0  0  0  0  0  0  0  0  0  0  0  0
   -0.6336    0.0680    1.1907 H   0  0  0  0  0  0  0  0  0  0  0  0
   -2.5946    0.5460    2.5509 H   0  0  0  0  0  0  0  0  0  0  0  0
   -4.7566    1.1106    1.4892 H   0  0  0  0  0  0  0  0  0  0  0  0
   -4.9380    1.2151   -0.9711 H   0  0  0  0  0  0  0  0  0  0  0  0
    2.9402   -2.0738   -0.1400 H   0  0  0  0  0  0  0  0  0  0  0  0
    4.6591   -1.1635    1.3552 H   0  0  0  0  0  0  0  0  0  0  0  0
    4.4892    1.1602    2.1932 H   0  0  0  0  0  0  0  0  0  0  0  0
    2.5794    2.5823    1.5175 H   0  0  0  0  0  0  0  0  0  0  0  0
    0.8437    1.7143    0.0451 H   0  0  0  0  0  0  0  0  0  0  0  0
  1  2  1  0
  2  3  1  0
  3  4  1  0
  4  5  2  0
  5  6  1  0
  6  7  2  0
  7  8  1  0
  8  9  2  0
  9 10  1  0
  2 11  1  0
 11 12  2  0
 12 13  1  0
 13 14  2  0
 14 15  1  0
 15 16  2  0
  9  4  1  0
 16 11  1  0
  1 17  1  0
  1 18  1  0
  1 19  1  0
  2 20  1  0
  3 21  1  0
  3 22  1  0
  5 23  1  0
  6 24  1  0
  7 25  1  0
  8 26  1  0
 12 27  1  0
 13 28  1  0
 14 29  1  0
 15 30  1  0
 16 31  1  0
M  RAD  1  10   3
M  END
$$$$
