
     RDKit          3D

 31 32  0  0  0  0  0  0  0  0999 V2000
    1.4756   -2.2976   -1.5659 C   0  0  0  0  0  0  0  0  0  0  0  0
    0.6394   -1.4535   -0.5953 C   0  0  0  0  0  0  0  0  0  0  0  0
   -0.7652   -1.1807   -1.1745 C   0  0  0  0  0  0  0  0  0  0  0  0
   -1.6473   -0.4575   -0.1814 C   0  0  0  0  0  0  0  0  0  0  0  0
   -1.7718    0.9415   -0.2537 C   0  0  0  0  0  0  0  0  0  0  0  0
   -2.5465    1.6328    0.6811 C   0  0  0  0  0  0  0  0  0  0  0  0
   -3.2015    0.9372    1.6990 C   0  0  0  0  0  0  0  0  0  0  0  0
   -3.0814   -0.4517    1.7863 C   0  0  0  0  0  0  0  0  0  0  0  0
   -2.3059   -1.1530    0.8553 C   0  0  0  0  0  0  0  0  0  0  0  0
   -2.1915   -2.5696    0.9726 N   0  0  0  0  0  1  0  0  0  0  0  0
    1.3596   -0.1642   -0.2385 C   0  0  0  0  0  0  0  0  0  0  0  0
    1.6428    0.1320    1.1075 C   0  0  0  0  0  0  0  0  0  0  0  0
    2.2745    1.3309    1.4510 C   0  0  0  0  0  0  0  0  0  0  0  0
    2.6267    2.2473    0.4577 C   0  0  0  0  0  0  0  0  0  0  0  0
    2.3461    1.9678   -0.8815 C   0  0  0  0  0  0  0  0  0  0  0  0
    1.7144    0.7707   -1.2309 C   0  0  0  0  0  0  0  0  0  0  0  0
    0.9945   -3.2870   -1.7198 H   0  0  0  0  0  0  0  0  0  0  0  0
    2.4904   -2.4683   -1.1466 H   0  0  0  0  0  0  0  0  0  0  0  0
    1.5729   -1.7979   -2.5528 H   0  0  0  0  0  0  0  0  0  0  0  0
    0.5124   -2.0704    0.3226 H   0  0  0  0  0  0  0  0  0  0  0  0
   -1.2455   -2.1436   -1.4546 H   0  0  0  0  0  0  0  0  0  0  0  0
   -0.6840   -0.5923   -2.1148 H   0  0  0  0  0  0  0  0  0  0  0  0
   -1.2629    1.4985   -1.0306 H   0  0  0  0  0  0  0  0  0  0  0  0
   -2.6363    2.7096    0.6181 H   0  0  0  0  0  0  0  0  0  0  0  0
   -3.8003    1.4749    2.4227 H   0  0  0  0  0  0  0  0  0  0  0  0
   -3.5893   -0.9831    2.5813 H   0  0  0  0  0  0  0  0  0  0  0  0
    1.3690   -0.5609    1.8933 H   0  0  0  0  0  0  0  0  0  0  0  0
    2.4881    1.5509    2.4890 H   0  0  0  0  0  0  0  0  0  0  0  0
    3.1141    3.1757    0.7262 H   0  0  0  0  0  0  0  0  0  0  0  0
    2.6144    2.6813   -1.6498 H   0  0  0  0  0  0  0  0  0  0  0  0
    1.4944    0.5800   -2.2730 H   0  0  0  0  0  0  0  0  0  0  0  0
  1  2  1  0
  2  3  1  0
  3  4  1  0
  4  5  2  0
  5  6  1  0
  6  7  2  0
  7  8  1  0
  8  9  2  0
  9 10  1  0
  2 11  1  0
 11 12  2  0
 12 13  1  0
 13 14  2  0
 14 15  1  0
 15 16  2  0
  9  4  1  0
 16 11  1  0
  1 17  1  0
  1 18  1  0
  1 19  1  0
  2 20  1  0
  3 21  1  0
  3 22  1  0
  5 23  1  0
  6 24  1  0
  7 25  1  0
  8 26  1  0
 12 27  1  0
 13 28  1  0
 14 29  1  0
 15 30  1  0
 16 31  1  0
M  RAD  1  10   3
M  END
$$$$
