
     RDKit          3D

 31 32  0  0  0  0  0  0  0  0999 V2000
    1.4586    0.1291   -2.7864 C   0  0  0  0  0  0  0  0  0  0  0  0
    0.5936    0.3756   -1.5435 C   0  0  0  0  0  0  0  0  0  0  0  0
   -0.7293   -0.4151   -1.6293 C   0  0  0  0  0  0  0  0  0  0  0  0
   -1.6500   -0.0890   -0.4746 C   0  0  0  0  0  0  0  0  0  0  0  0
   -1.6734   -0.9291    0.6531 C   0  0  0  0  0  0  0  0  0  0  0  0
   -2.4841   -0.6216    1.7486 C   0  0  0  0  0  0  0  0  0  0  0  0
   -3.2763    0.5278    1.7324 C   0  0  0  0  0  0  0  0  0  0  0  0
   -3.2580    1.3743    0.6215 C   0  0  0  0  0  0  0  0  0  0  0  0
   -2.4476    1.0755   -0.4804 C   0  0  0  0  0  0  0  0  0  0  0  0
   -2.4396    1.9613   -1.5978 N   0  0  0  0  0  1  0  0  0  0  0  0
    1.3619    0.0483   -0.2743 C   0  0  0  0  0  0  0  0  0  0  0  0
    1.5373    1.0343    0.7139 C   0  0  0  0  0  0  0  0  0  0  0  0
    2.2128    0.7353    1.9007 C   0  0  0  0  0  0  0  0  0  0  0  0
    2.7167   -0.5493    2.1159 C   0  0  0  0  0  0  0  0  0  0  0  0
    2.5444   -1.5386    1.1453 C   0  0  0  0  0  0  0  0  0  0  0  0
    1.8696   -1.2454   -0.0432 C   0  0  0  0  0  0  0  0  0  0  0  0
    2.4160    0.6866   -2.7020 H   0  0  0  0  0  0  0  0  0  0  0  0
    1.6808   -0.9513   -2.9143 H   0  0  0  0  0  0  0  0  0  0  0  0
    0.9288    0.4879   -3.6947 H   0  0  0  0  0  0  0  0  0  0  0  0
    0.3405    1.4596   -1.5513 H   0  0  0  0  0  0  0  0  0  0  0  0
   -1.2446   -0.1753   -2.5850 H   0  0  0  0  0  0  0  0  0  0  0  0
   -0.5215   -1.5074   -1.6575 H   0  0  0  0  0  0  0  0  0  0  0  0
   -1.0581   -1.8196    0.6871 H   0  0  0  0  0  0  0  0  0  0  0  0
   -2.4955   -1.2736    2.6124 H   0  0  0  0  0  0  0  0  0  0  0  0
   -3.9029    0.7646    2.5826 H   0  0  0  0  0  0  0  0  0  0  0  0
   -3.8724    2.2660    0.6188 H   0  0  0  0  0  0  0  0  0  0  0  0
    1.1456    2.0336    0.5704 H   0  0  0  0  0  0  0  0  0  0  0  0
    2.3428    1.4998    2.6558 H   0  0  0  0  0  0  0  0  0  0  0  0
    3.2379   -0.7790    3.0362 H   0  0  0  0  0  0  0  0  0  0  0  0
    2.9305   -2.5353    1.3157 H   0  0  0  0  0  0  0  0  0  0  0  0
    1.7356   -2.0302   -0.7761 H   0  0  0  0  0  0  0  0  0  0  0  0
  1  2  1  0
  2  3  1  0
  3  4  1  0
  4  5  2  0
  5  6  1  0
  6  7  2  0
  7  8  1  0
  8  9  2  0
  9 10  1  0
  2 11  1  0
 11 12  2  0
 12 13  1  0
 13 14  2  0
 14 15  1  0
 15 16  2  0
  9  4  1  0
 16 11  1  0
  1 17  1  0
  1 18  1  0
  1 19  1  0
  2 20  1  0
  3 21  1  0
  3 22  1  0
  5 23  1  0
  6 24  1  0
  7 25  1  0
  8 26  1  0
 12 27  1  0
 13 28  1  0
 14 29  1  0
 15 30  1  0
 16 31  1  0
M  RAD  1  10   3
M  END
$$$$
