
     RDKit          3D

 31 32  0  0  0  0  0  0  0  0999 V2000
    0.5096   -1.3548   -2.1000 C   0  0  0  0  0  0  0  0  0  0  0  0
    0.7542   -1.5191   -0.5913 C   0  0  0  0  0  0  0  0  0  0  0  0
   -0.5444   -1.8113    0.1971 C   0  0  0  0  0  0  0  0  0  0  0  0
   -1.5265   -0.6580    0.2236 C   0  0  0  0  0  0  0  0  0  0  0  0
   -1.4149    0.3201    1.2287 C   0  0  0  0  0  0  0  0  0  0  0  0
   -2.2931    1.4058    1.2636 C   0  0  0  0  0  0  0  0  0  0  0  0
   -3.2988    1.5232    0.3032 C   0  0  0  0  0  0  0  0  0  0  0  0
   -3.4321    0.5523   -0.6917 C   0  0  0  0  0  0  0  0  0  0  0  0
   -2.5559   -0.5388   -0.7365 C   0  0  0  0  0  0  0  0  0  0  0  0
   -2.7291   -1.5236   -1.7531 N   0  0  0  0  0  1  0  0  0  0  0  0
    1.5470   -0.3693    0.0133 C   0  0  0  0  0  0  0  0  0  0  0  0
    1.3077    0.9740   -0.3456 C   0  0  0  0  0  0  0  0  0  0  0  0
    2.0237    2.0086    0.2635 C   0  0  0  0  0  0  0  0  0  0  0  0
    2.9782    1.7206    1.2408 C   0  0  0  0  0  0  0  0  0  0  0  0
    3.2144    0.3969    1.6163 C   0  0  0  0  0  0  0  0  0  0  0  0
    2.5004   -0.6419    1.0121 C   0  0  0  0  0  0  0  0  0  0  0  0
    0.0697   -2.2868   -2.5145 H   0  0  0  0  0  0  0  0  0  0  0  0
    1.4720   -1.1661   -2.6219 H   0  0  0  0  0  0  0  0  0  0  0  0
   -0.1835   -0.5179   -2.3185 H   0  0  0  0  0  0  0  0  0  0  0  0
    1.3791   -2.4366   -0.5022 H   0  0  0  0  0  0  0  0  0  0  0  0
   -0.2723   -2.0808    1.2418 H   0  0  0  0  0  0  0  0  0  0  0  0
   -1.0312   -2.7184   -0.2218 H   0  0  0  0  0  0  0  0  0  0  0  0
   -0.6389    0.2468    1.9809 H   0  0  0  0  0  0  0  0  0  0  0  0
   -2.1930    2.1572    2.0361 H   0  0  0  0  0  0  0  0  0  0  0  0
   -3.9786    2.3650    0.3322 H   0  0  0  0  0  0  0  0  0  0  0  0
   -4.2202    0.6472   -1.4282 H   0  0  0  0  0  0  0  0  0  0  0  0
    0.5572    1.2310   -1.0797 H   0  0  0  0  0  0  0  0  0  0  0  0
    1.8324    3.0362   -0.0177 H   0  0  0  0  0  0  0  0  0  0  0  0
    3.5296    2.5238    1.7122 H   0  0  0  0  0  0  0  0  0  0  0  0
    3.9482    0.1752    2.3805 H   0  0  0  0  0  0  0  0  0  0  0  0
    2.6889   -1.6607    1.3273 H   0  0  0  0  0  0  0  0  0  0  0  0
  1  2  1  0
  2  3  1  0
  3  4  1  0
  4  5  2  0
  5  6  1  0
  6  7  2  0
  7  8  1  0
  8  9  2  0
  9 10  1  0
  2 11  1  0
 11 12  2  0
 12 13  1  0
 13 14  2  0
 14 15  1  0
 15 16  2  0
  9  4  1  0
 16 11  1  0
  1 17  1  0
  1 18  1  0
  1 19  1  0
  2 20  1  0
  3 21  1  0
  3 22  1  0
  5 23  1  0
  6 24  1  0
  7 25  1  0
  8 26  1  0
 12 27  1  0
 13 28  1  0
 14 29  1  0
 15 30  1  0
 16 31  1  0
M  RAD  1  10   3
M  END
$$$$
