
     RDKit          3D

 31 32  0  0  0  0  0  0  0  0999 V2000
    0.4699   -1.6011    2.0603 C   0  0  0  0  0  0  0  0  0  0  0  0
    0.5679   -0.0894    1.7991 C   0  0  0  0  0  0  0  0  0  0  0  0
   -0.8177    0.5897    1.6880 C   0  0  0  0  0  0  0  0  0  0  0  0
   -1.6164    0.1730    0.4699 C   0  0  0  0  0  0  0  0  0  0  0  0
   -1.4401    0.8672   -0.7412 C   0  0  0  0  0  0  0  0  0  0  0  0
   -2.1472    0.4899   -1.8852 C   0  0  0  0  0  0  0  0  0  0  0  0
   -3.0456   -0.5767   -1.8325 C   0  0  0  0  0  0  0  0  0  0  0  0
   -3.2431   -1.2657   -0.6339 C   0  0  0  0  0  0  0  0  0  0  0  0
   -2.5379   -0.8966    0.5180 C   0  0  0  0  0  0  0  0  0  0  0  0
   -2.7751   -1.6071    1.7315 N   0  0  0  0  0  1  0  0  0  0  0  0
    1.4727    0.2557    0.6251 C   0  0  0  0  0  0  0  0  0  0  0  0
    1.4648   -0.4934   -0.5704 C   0  0  0  0  0  0  0  0  0  0  0  0
    2.2764   -0.1206   -1.6458 C   0  0  0  0  0  0  0  0  0  0  0  0
    3.0976    1.0042   -1.5480 C   0  0  0  0  0  0  0  0  0  0  0  0
    3.1042    1.7633   -0.3763 C   0  0  0  0  0  0  0  0  0  0  0  0
    2.2934    1.3965    0.7018 C   0  0  0  0  0  0  0  0  0  0  0  0
   -0.0696   -1.7849    3.0138 H   0  0  0  0  0  0  0  0  0  0  0  0
    1.4877   -2.0372    2.1507 H   0  0  0  0  0  0  0  0  0  0  0  0
   -0.0717   -2.1274    1.2492 H   0  0  0  0  0  0  0  0  0  0  0  0
    1.0405    0.3283    2.7169 H   0  0  0  0  0  0  0  0  0  0  0  0
   -0.6717    1.6925    1.6668 H   0  0  0  0  0  0  0  0  0  0  0  0
   -1.3994    0.3891    2.6135 H   0  0  0  0  0  0  0  0  0  0  0  0
   -0.7453    1.6959   -0.8015 H   0  0  0  0  0  0  0  0  0  0  0  0
   -1.9977    1.0252   -2.8140 H   0  0  0  0  0  0  0  0  0  0  0  0
   -3.5929   -0.8672   -2.7199 H   0  0  0  0  0  0  0  0  0  0  0  0
   -3.9479   -2.0871   -0.6000 H   0  0  0  0  0  0  0  0  0  0  0  0
    0.8209   -1.3537   -0.6865 H   0  0  0  0  0  0  0  0  0  0  0  0
    2.2627   -0.7009   -2.5593 H   0  0  0  0  0  0  0  0  0  0  0  0
    3.7234    1.2918   -2.3828 H   0  0  0  0  0  0  0  0  0  0  0  0
    3.7343    2.6403   -0.3047 H   0  0  0  0  0  0  0  0  0  0  0  0
    2.3030    2.0064    1.5966 H   0  0  0  0  0  0  0  0  0  0  0  0
  1  2  1  0
  2  3  1  0
  3  4  1  0
  4  5  2  0
  5  6  1  0
  6  7  2  0
  7  8  1  0
  8  9  2  0
  9 10  1  0
  2 11  1  0
 11 12  2  0
 12 13  1  0
 13 14  2  0
 14 15  1  0
 15 16  2  0
  9  4  1  0
 16 11  1  0
  1 17  1  0
  1 18  1  0
  1 19  1  0
  2 20  1  0
  3 21  1  0
  3 22  1  0
  5 23  1  0
  6 24  1  0
  7 25  1  0
  8 26  1  0
 12 27  1  0
 13 28  1  0
 14 29  1  0
 15 30  1  0
 16 31  1  0
M  RAD  1  10   3
M  END
$$$$
