
     RDKit          3D

 31 32  0  0  0  0  0  0  0  0999 V2000
    0.3502   -1.7610    1.7797 C   0  0  0  0  0  0  0  0  0  0  0  0
    0.7816   -1.5850    0.3149 C   0  0  0  0  0  0  0  0  0  0  0  0
   -0.3908   -1.7592   -0.6793 C   0  0  0  0  0  0  0  0  0  0  0  0
   -1.4436   -0.6732   -0.5927 C   0  0  0  0  0  0  0  0  0  0  0  0
   -1.2855    0.5027   -1.3490 C   0  0  0  0  0  0  0  0  0  0  0  0
   -2.2296    1.5293   -1.2711 C   0  0  0  0  0  0  0  0  0  0  0  0
   -3.3471    1.3910   -0.4466 C   0  0  0  0  0  0  0  0  0  0  0  0
   -3.5260    0.2234    0.2983 C   0  0  0  0  0  0  0  0  0  0  0  0
   -2.5846   -0.8107    0.2287 C   0  0  0  0  0  0  0  0  0  0  0  0
   -2.8046   -1.9984    0.9866 N   0  0  0  0  0  1  0  0  0  0  0  0
    1.5549   -0.2971    0.0714 C   0  0  0  0  0  0  0  0  0  0  0  0
    1.1788    0.9249    0.6677 C   0  0  0  0  0  0  0  0  0  0  0  0
    1.8849    2.0981    0.3859 C   0  0  0  0  0  0  0  0  0  0  0  0
    2.9659    2.0712   -0.4972 C   0  0  0  0  0  0  0  0  0  0  0  0
    3.3395    0.8717   -1.1060 C   0  0  0  0  0  0  0  0  0  0  0  0
    2.6362   -0.3043   -0.8295 C   0  0  0  0  0  0  0  0  0  0  0  0
    1.2284   -1.6457    2.4503 H   0  0  0  0  0  0  0  0  0  0  0  0
   -0.4224   -1.0234    2.0756 H   0  0  0  0  0  0  0  0  0  0  0  0
   -0.0669   -2.7795    1.9303 H   0  0  0  0  0  0  0  0  0  0  0  0
    1.4773   -2.4323    0.1189 H   0  0  0  0  0  0  0  0  0  0  0  0
    0.0209   -1.7844   -1.7126 H   0  0  0  0  0  0  0  0  0  0  0  0
   -0.8567   -2.7564   -0.5254 H   0  0  0  0  0  0  0  0  0  0  0  0
   -0.4233    0.6286   -1.9923 H   0  0  0  0  0  0  0  0  0  0  0  0
   -2.0939    2.4333   -1.8505 H   0  0  0  0  0  0  0  0  0  0  0  0
   -4.0777    2.1874   -0.3881 H   0  0  0  0  0  0  0  0  0  0  0  0
   -4.4000    0.1213    0.9294 H   0  0  0  0  0  0  0  0  0  0  0  0
    0.3306    0.9833    1.3351 H   0  0  0  0  0  0  0  0  0  0  0  0
    1.5882    3.0310    0.8474 H   0  0  0  0  0  0  0  0  0  0  0  0
    3.5095    2.9813   -0.7152 H   0  0  0  0  0  0  0  0  0  0  0  0
    4.1720    0.8536   -1.7975 H   0  0  0  0  0  0  0  0  0  0  0  0
    2.9335   -1.2215   -1.3226 H   0  0  0  0  0  0  0  0  0  0  0  0
  1  2  1  0
  2  3  1  0
  3  4  1  0
  4  5  2  0
  5  6  1  0
  6  7  2  0
  7  8  1  0
  8  9  2  0
  9 10  1  0
  2 11  1  0
 11 12  2  0
 12 13  1  0
 13 14  2  0
 14 15  1  0
 15 16  2  0
  9  4  1  0
 16 11  1  0
  1 17  1  0
  1 18  1  0
  1 19  1  0
  2 20  1  0
  3 21  1  0
  3 22  1  0
  5 23  1  0
  6 24  1  0
  7 25  1  0
  8 26  1  0
 12 27  1  0
 13 28  1  0
 14 29  1  0
 15 30  1  0
 16 31  1  0
M  RAD  1  10   3
M  END
$$$$
