
     RDKit          3D

 31 32  0  0  0  0  0  0  0  0999 V2000
    1.1142   -2.8649   -0.6777 C   0  0  0  0  0  0  0  0  0  0  0  0
    0.3299   -1.6567   -0.1495 C   0  0  0  0  0  0  0  0  0  0  0  0
   -0.7340   -1.2030   -1.1717 C   0  0  0  0  0  0  0  0  0  0  0  0
   -1.6011   -0.0937   -0.6193 C   0  0  0  0  0  0  0  0  0  0  0  0
   -1.2966    1.2442   -0.9278 C   0  0  0  0  0  0  0  0  0  0  0  0
   -2.0585    2.2856   -0.3919 C   0  0  0  0  0  0  0  0  0  0  0  0
   -3.1286    2.0039    0.4592 C   0  0  0  0  0  0  0  0  0  0  0  0
   -3.4381    0.6799    0.7789 C   0  0  0  0  0  0  0  0  0  0  0  0
   -2.6794   -0.3704    0.2484 C   0  0  0  0  0  0  0  0  0  0  0  0
   -3.0100   -1.7126    0.5985 N   0  0  0  0  0  1  0  0  0  0  0  0
    1.2685   -0.5222    0.2248 C   0  0  0  0  0  0  0  0  0  0  0  0
    1.2603   -0.0077    1.5343 C   0  0  0  0  0  0  0  0  0  0  0  0
    2.0950    1.0586    1.8815 C   0  0  0  0  0  0  0  0  0  0  0  0
    2.9428    1.6248    0.9269 C   0  0  0  0  0  0  0  0  0  0  0  0
    2.9564    1.1271   -0.3779 C   0  0  0  0  0  0  0  0  0  0  0  0
    2.1238    0.0611   -0.7308 C   0  0  0  0  0  0  0  0  0  0  0  0
    1.6062   -2.6333   -1.6459 H   0  0  0  0  0  0  0  0  0  0  0  0
    0.4283   -3.7254   -0.8300 H   0  0  0  0  0  0  0  0  0  0  0  0
    1.8902   -3.1675    0.0578 H   0  0  0  0  0  0  0  0  0  0  0  0
   -0.2048   -2.0078    0.7615 H   0  0  0  0  0  0  0  0  0  0  0  0
   -1.3784   -2.0666   -1.4460 H   0  0  0  0  0  0  0  0  0  0  0  0
   -0.2437   -0.8734   -2.1140 H   0  0  0  0  0  0  0  0  0  0  0  0
   -0.4641    1.4818   -1.5784 H   0  0  0  0  0  0  0  0  0  0  0  0
   -1.8167    3.3123   -0.6344 H   0  0  0  0  0  0  0  0  0  0  0  0
   -3.7169    2.8122    0.8740 H   0  0  0  0  0  0  0  0  0  0  0  0
   -4.2672    0.4702    1.4432 H   0  0  0  0  0  0  0  0  0  0  0  0
    0.6033   -0.4263    2.2864 H   0  0  0  0  0  0  0  0  0  0  0  0
    2.0819    1.4485    2.8911 H   0  0  0  0  0  0  0  0  0  0  0  0
    3.5869    2.4515    1.1975 H   0  0  0  0  0  0  0  0  0  0  0  0
    3.6098    1.5704   -1.1182 H   0  0  0  0  0  0  0  0  0  0  0  0
    2.1405   -0.3004   -1.7505 H   0  0  0  0  0  0  0  0  0  0  0  0
  1  2  1  0
  2  3  1  0
  3  4  1  0
  4  5  2  0
  5  6  1  0
  6  7  2  0
  7  8  1  0
  8  9  2  0
  9 10  1  0
  2 11  1  0
 11 12  2  0
 12 13  1  0
 13 14  2  0
 14 15  1  0
 15 16  2  0
  9  4  1  0
 16 11  1  0
  1 17  1  0
  1 18  1  0
  1 19  1  0
  2 20  1  0
  3 21  1  0
  3 22  1  0
  5 23  1  0
  6 24  1  0
  7 25  1  0
  8 26  1  0
 12 27  1  0
 13 28  1  0
 14 29  1  0
 15 30  1  0
 16 31  1  0
M  RAD  1  10   3
M  END
$$$$
