
     RDKit          3D

 31 32  0  0  0  0  0  0  0  0999 V2000
    1.4079   -2.2066   -1.6985 C   0  0  0  0  0  0  0  0  0  0  0  0
    0.5755   -1.0333   -1.1655 C   0  0  0  0  0  0  0  0  0  0  0  0
   -0.7736   -1.5282   -0.6021 C   0  0  0  0  0  0  0  0  0  0  0  0
   -1.6609   -0.3761   -0.1863 C   0  0  0  0  0  0  0  0  0  0  0  0
   -1.6897    0.0268    1.1608 C   0  0  0  0  0  0  0  0  0  0  0  0
   -2.4687    1.1166    1.5576 C   0  0  0  0  0  0  0  0  0  0  0  0
   -3.2235    1.8175    0.6154 C   0  0  0  0  0  0  0  0  0  0  0  0
   -3.1993    1.4320   -0.7270 C   0  0  0  0  0  0  0  0  0  0  0  0
   -2.4204    0.3424   -1.1345 C   0  0  0  0  0  0  0  0  0  0  0  0
   -2.4053   -0.0244   -2.5125 N   0  0  0  0  0  1  0  0  0  0  0  0
    1.3572   -0.2384   -0.1333 C   0  0  0  0  0  0  0  0  0  0  0  0
    1.5834    1.1362   -0.3303 C   0  0  0  0  0  0  0  0  0  0  0  0
    2.2717    1.8853    0.6286 C   0  0  0  0  0  0  0  0  0  0  0  0
    2.7379    1.2731    1.7941 C   0  0  0  0  0  0  0  0  0  0  0  0
    2.5150   -0.0894    2.0043 C   0  0  0  0  0  0  0  0  0  0  0  0
    1.8271   -0.8434    1.0490 C   0  0  0  0  0  0  0  0  0  0  0  0
    1.5926   -2.9620   -0.9058 H   0  0  0  0  0  0  0  0  0  0  0  0
    0.8726   -2.7018   -2.5367 H   0  0  0  0  0  0  0  0  0  0  0  0
    2.3843   -1.8394   -2.0811 H   0  0  0  0  0  0  0  0  0  0  0  0
    0.3575   -0.3835   -2.0426 H   0  0  0  0  0  0  0  0  0  0  0  0
   -1.2993   -2.1329   -1.3730 H   0  0  0  0  0  0  0  0  0  0  0  0
   -0.6019   -2.2102    0.2595 H   0  0  0  0  0  0  0  0  0  0  0  0
   -1.1029   -0.4991    1.9038 H   0  0  0  0  0  0  0  0  0  0  0  0
   -2.4844    1.4199    2.5965 H   0  0  0  0  0  0  0  0  0  0  0  0
   -3.8256    2.6620    0.9248 H   0  0  0  0  0  0  0  0  0  0  0  0
   -3.7845    1.9837   -1.4521 H   0  0  0  0  0  0  0  0  0  0  0  0
    1.2216    1.6316   -1.2227 H   0  0  0  0  0  0  0  0  0  0  0  0
    2.4408    2.9424    0.4691 H   0  0  0  0  0  0  0  0  0  0  0  0
    3.2691    1.8553    2.5359 H   0  0  0  0  0  0  0  0  0  0  0  0
    2.8719   -0.5615    2.9105 H   0  0  0  0  0  0  0  0  0  0  0  0
    1.6538   -1.8946    1.2380 H   0  0  0  0  0  0  0  0  0  0  0  0
  1  2  1  0
  2  3  1  0
  3  4  1  0
  4  5  2  0
  5  6  1  0
  6  7  2  0
  7  8  1  0
  8  9  2  0
  9 10  1  0
  2 11  1  0
 11 12  2  0
 12 13  1  0
 13 14  2  0
 14 15  1  0
 15 16  2  0
  9  4  1  0
 16 11  1  0
  1 17  1  0
  1 18  1  0
  1 19  1  0
  2 20  1  0
  3 21  1  0
  3 22  1  0
  5 23  1  0
  6 24  1  0
  7 25  1  0
  8 26  1  0
 12 27  1  0
 13 28  1  0
 14 29  1  0
 15 30  1  0
 16 31  1  0
M  RAD  1  10   3
M  END
$$$$
