
     RDKit          3D

 31 32  0  0  0  0  0  0  0  0999 V2000
    1.2764   -2.8014   -0.6565 C   0  0  0  0  0  0  0  0  0  0  0  0
    0.4309   -1.6351   -0.1288 C   0  0  0  0  0  0  0  0  0  0  0  0
   -0.6863   -1.2698   -1.1294 C   0  0  0  0  0  0  0  0  0  0  0  0
   -1.6076   -0.2069   -0.5734 C   0  0  0  0  0  0  0  0  0  0  0  0
   -1.3972    1.1413   -0.9139 C   0  0  0  0  0  0  0  0  0  0  0  0
   -2.2096    2.1426   -0.3761 C   0  0  0  0  0  0  0  0  0  0  0  0
   -3.2368    1.8105    0.5090 C   0  0  0  0  0  0  0  0  0  0  0  0
   -3.4529    0.4761    0.8607 C   0  0  0  0  0  0  0  0  0  0  0  0
   -2.6429   -0.5342    0.3284 C   0  0  0  0  0  0  0  0  0  0  0  0
   -2.8780   -1.8875    0.7114 N   0  0  0  0  0  1  0  0  0  0  0  0
    1.3047   -0.4363    0.1992 C   0  0  0  0  0  0  0  0  0  0  0  0
    1.2981    0.1022    1.4990 C   0  0  0  0  0  0  0  0  0  0  0  0
    2.0719    1.2258    1.8040 C   0  0  0  0  0  0  0  0  0  0  0  0
    2.8566    1.8256    0.8165 C   0  0  0  0  0  0  0  0  0  0  0  0
    2.8676    1.3042   -0.4790 C   0  0  0  0  0  0  0  0  0  0  0  0
    2.0957    0.1809   -0.7898 C   0  0  0  0  0  0  0  0  0  0  0  0
    0.6430   -3.7065   -0.7745 H   0  0  0  0  0  0  0  0  0  0  0  0
    1.7271   -2.5583   -1.6419 H   0  0  0  0  0  0  0  0  0  0  0  0
    2.0892   -3.0398    0.0627 H   0  0  0  0  0  0  0  0  0  0  0  0
   -0.0563   -2.0014    0.8027 H   0  0  0  0  0  0  0  0  0  0  0  0
   -1.2813   -2.1777   -1.3704 H   0  0  0  0  0  0  0  0  0  0  0  0
   -0.2429   -0.9283   -2.0906 H   0  0  0  0  0  0  0  0  0  0  0  0
   -0.5989    1.4182   -1.5913 H   0  0  0  0  0  0  0  0  0  0  0  0
   -2.0402    3.1776   -0.6435 H   0  0  0  0  0  0  0  0  0  0  0  0
   -3.8644    2.5880    0.9252 H   0  0  0  0  0  0  0  0  0  0  0  0
   -4.2492    0.2275    1.5511 H   0  0  0  0  0  0  0  0  0  0  0  0
    0.6890   -0.3423    2.2762 H   0  0  0  0  0  0  0  0  0  0  0  0
    2.0604    1.6338    2.8064 H   0  0  0  0  0  0  0  0  0  0  0  0
    3.4535    2.6965    1.0544 H   0  0  0  0  0  0  0  0  0  0  0  0
    3.4717    1.7733   -1.2448 H   0  0  0  0  0  0  0  0  0  0  0  0
    2.1087   -0.1987   -1.8030 H   0  0  0  0  0  0  0  0  0  0  0  0
  1  2  1  0
  2  3  1  0
  3  4  1  0
  4  5  2  0
  5  6  1  0
  6  7  2  0
  7  8  1  0
  8  9  2  0
  9 10  1  0
  2 11  1  0
 11 12  2  0
 12 13  1  0
 13 14  2  0
 14 15  1  0
 15 16  2  0
  9  4  1  0
 16 11  1  0
  1 17  1  0
  1 18  1  0
  1 19  1  0
  2 20  1  0
  3 21  1  0
  3 22  1  0
  5 23  1  0
  6 24  1  0
  7 25  1  0
  8 26  1  0
 12 27  1  0
 13 28  1  0
 14 29  1  0
 15 30  1  0
 16 31  1  0
M  RAD  1  10   3
M  END
$$$$
