
     RDKit          3D

 31 32  0  0  0  0  0  0  0  0999 V2000
   -1.9618    3.0310    0.5423 N   0  0  0  0  0  1  0  0  0  0  0  0
   -2.2732    1.9710   -0.7858 S   0  0  0  0  0  0  0  0  0  0  0  0
   -1.0805    1.9368   -1.6984 O   0  0  0  0  0  0  0  0  0  0  0  0
   -3.4480    2.5020   -1.5588 O   0  0  0  0  0  0  0  0  0  0  0  0
   -2.6235    0.3431   -0.1770 C   0  0  0  0  0  0  0  0  0  0  0  0
   -3.9272   -0.1608   -0.3274 C   0  0  0  0  0  0  0  0  0  0  0  0
   -4.2601   -1.4314    0.1435 C   0  0  0  0  0  0  0  0  0  0  0  0
   -3.2979   -2.2176    0.7727 C   0  0  0  0  0  0  0  0  0  0  0  0
   -1.9995   -1.7350    0.9363 C   0  0  0  0  0  0  0  0  0  0  0  0
   -1.6440   -0.4535    0.4763 C   0  0  0  0  0  0  0  0  0  0  0  0
   -0.2101   -0.0091    0.6597 C   0  0  0  0  0  0  0  0  0  0  0  0
    0.6838   -0.5881   -0.4426 C   0  0  0  0  0  0  0  0  0  0  0  0
    2.0992   -0.1013   -0.2860 C   0  0  0  0  0  0  0  0  0  0  0  0
    3.0059   -0.8066    0.5228 C   0  0  0  0  0  0  0  0  0  0  0  0
    4.3108   -0.3342    0.6949 C   0  0  0  0  0  0  0  0  0  0  0  0
    4.7157    0.8486    0.0700 C   0  0  0  0  0  0  0  0  0  0  0  0
    3.8152    1.5632   -0.7248 C   0  0  0  0  0  0  0  0  0  0  0  0
    2.5094    1.0943   -0.8996 C   0  0  0  0  0  0  0  0  0  0  0  0
   -4.6952    0.4290   -0.8100 H   0  0  0  0  0  0  0  0  0  0  0  0
   -5.2676   -1.8073    0.0192 H   0  0  0  0  0  0  0  0  0  0  0  0
   -3.5577   -3.2044    1.1337 H   0  0  0  0  0  0  0  0  0  0  0  0
   -1.2646   -2.3649    1.4229 H   0  0  0  0  0  0  0  0  0  0  0  0
    0.1586   -0.3600    1.6491 H   0  0  0  0  0  0  0  0  0  0  0  0
   -0.1256    1.0956    0.6780 H   0  0  0  0  0  0  0  0  0  0  0  0
    0.6626   -1.6993   -0.3968 H   0  0  0  0  0  0  0  0  0  0  0  0
    0.2943   -0.2972   -1.4421 H   0  0  0  0  0  0  0  0  0  0  0  0
    2.7016   -1.7193    1.0202 H   0  0  0  0  0  0  0  0  0  0  0  0
    5.0070   -0.8832    1.3156 H   0  0  0  0  0  0  0  0  0  0  0  0
    5.7256    1.2137    0.2053 H   0  0  0  0  0  0  0  0  0  0  0  0
    4.1278    2.4826   -1.2028 H   0  0  0  0  0  0  0  0  0  0  0  0
    1.8189    1.6623   -1.5104 H   0  0  0  0  0  0  0  0  0  0  0  0
  1  2  1  0
  2  3  2  0
  2  4  2  0
  2  5  1  0
  5  6  2  0
  6  7  1  0
  7  8  2  0
  8  9  1  0
  9 10  2  0
 10 11  1  0
 11 12  1  0
 12 13  1  0
 13 14  2  0
 14 15  1  0
 15 16  2  0
 16 17  1  0
 17 18  2  0
 10  5  1  0
 18 13  1  0
  6 19  1  0
  7 20  1  0
  8 21  1  0
  9 22  1  0
 11 23  1  0
 11 24  1  0
 12 25  1  0
 12 26  1  0
 14 27  1  0
 15 28  1  0
 16 29  1  0
 17 30  1  0
 18 31  1  0
M  RAD  1   1   3
M  END
$$$$
