
     RDKit          3D

 31 32  0  0  0  0  0  0  0  0999 V2000
   -1.7896    2.6399    1.8351 N   0  0  0  0  0  1  0  0  0  0  0  0
   -2.2744    2.1107    0.2636 S   0  0  0  0  0  0  0  0  0  0  0  0
   -1.1857    2.4040   -0.7289 O   0  0  0  0  0  0  0  0  0  0  0  0
   -3.5048    2.8733   -0.1415 O   0  0  0  0  0  0  0  0  0  0  0  0
   -2.6144    0.3711    0.3014 C   0  0  0  0  0  0  0  0  0  0  0  0
   -3.9431   -0.0544    0.1291 C   0  0  0  0  0  0  0  0  0  0  0  0
   -4.2681   -1.4110    0.1612 C   0  0  0  0  0  0  0  0  0  0  0  0
   -3.2727   -2.3632    0.3669 C   0  0  0  0  0  0  0  0  0  0  0  0
   -1.9485   -1.9623    0.5445 C   0  0  0  0  0  0  0  0  0  0  0  0
   -1.5997   -0.5992    0.5240 C   0  0  0  0  0  0  0  0  0  0  0  0
   -0.1401   -0.2404    0.6919 C   0  0  0  0  0  0  0  0  0  0  0  0
    0.6132   -0.3925   -0.6343 C   0  0  0  0  0  0  0  0  0  0  0  0
    2.0530    0.0152   -0.4745 C   0  0  0  0  0  0  0  0  0  0  0  0
    3.0147   -0.9246   -0.0672 C   0  0  0  0  0  0  0  0  0  0  0  0
    4.3459   -0.5363    0.1141 C   0  0  0  0  0  0  0  0  0  0  0  0
    4.7235    0.7923   -0.0998 C   0  0  0  0  0  0  0  0  0  0  0  0
    3.7697    1.7358   -0.4914 C   0  0  0  0  0  0  0  0  0  0  0  0
    2.4375    1.3518   -0.6740 C   0  0  0  0  0  0  0  0  0  0  0  0
   -4.7369    0.6635   -0.0299 H   0  0  0  0  0  0  0  0  0  0  0  0
   -5.2952   -1.7243    0.0253 H   0  0  0  0  0  0  0  0  0  0  0  0
   -3.5268   -3.4152    0.3875 H   0  0  0  0  0  0  0  0  0  0  0  0
   -1.1887   -2.7193    0.6970 H   0  0  0  0  0  0  0  0  0  0  0  0
    0.3179   -0.9139    1.4500 H   0  0  0  0  0  0  0  0  0  0  0  0
   -0.0165    0.7883    1.0847 H   0  0  0  0  0  0  0  0  0  0  0  0
    0.1315    0.2282   -1.4203 H   0  0  0  0  0  0  0  0  0  0  0  0
    0.5589   -1.4495   -0.9767 H   0  0  0  0  0  0  0  0  0  0  0  0
    2.7330   -1.9551    0.1111 H   0  0  0  0  0  0  0  0  0  0  0  0
    5.0840   -1.2647    0.4239 H   0  0  0  0  0  0  0  0  0  0  0  0
    5.7539    1.0915    0.0423 H   0  0  0  0  0  0  0  0  0  0  0  0
    4.0619    2.7658   -0.6503 H   0  0  0  0  0  0  0  0  0  0  0  0
    1.7067    2.0946   -0.9686 H   0  0  0  0  0  0  0  0  0  0  0  0
  1  2  1  0
  2  3  2  0
  2  4  2  0
  2  5  1  0
  5  6  2  0
  6  7  1  0
  7  8  2  0
  8  9  1  0
  9 10  2  0
 10 11  1  0
 11 12  1  0
 12 13  1  0
 13 14  2  0
 14 15  1  0
 15 16  2  0
 16 17  1  0
 17 18  2  0
 10  5  1  0
 18 13  1  0
  6 19  1  0
  7 20  1  0
  8 21  1  0
  9 22  1  0
 11 23  1  0
 11 24  1  0
 12 25  1  0
 12 26  1  0
 14 27  1  0
 15 28  1  0
 16 29  1  0
 17 30  1  0
 18 31  1  0
M  RAD  1   1   3
M  END
$$$$
