
     RDKit          3D

 31 32  0  0  0  0  0  0  0  0999 V2000
    1.9986   -3.0252   -0.2354 N   0  0  0  0  0  1  0  0  0  0  0  0
    2.2462   -1.9524    1.0960 S   0  0  0  0  0  0  0  0  0  0  0  0
    3.3885   -2.4707    1.9242 O   0  0  0  0  0  0  0  0  0  0  0  0
    1.0144   -1.9169    1.9550 O   0  0  0  0  0  0  0  0  0  0  0  0
    2.6149   -0.3279    0.4891 C   0  0  0  0  0  0  0  0  0  0  0  0
    3.9083    0.1842    0.6922 C   0  0  0  0  0  0  0  0  0  0  0  0
    4.2553    1.4525    0.2255 C   0  0  0  0  0  0  0  0  0  0  0  0
    3.3177    2.2284   -0.4521 C   0  0  0  0  0  0  0  0  0  0  0  0
    2.0301    1.7375   -0.6683 C   0  0  0  0  0  0  0  0  0  0  0  0
    1.6611    0.4580   -0.2133 C   0  0  0  0  0  0  0  0  0  0  0  0
    0.2389    0.0046   -0.4556 C   0  0  0  0  0  0  0  0  0  0  0  0
   -0.7054    0.5881    0.6014 C   0  0  0  0  0  0  0  0  0  0  0  0
   -2.1102    0.0926    0.3870 C   0  0  0  0  0  0  0  0  0  0  0  0
   -2.5413   -1.0998    0.9922 C   0  0  0  0  0  0  0  0  0  0  0  0
   -3.8358   -1.5770    0.7643 C   0  0  0  0  0  0  0  0  0  0  0  0
   -4.7040   -0.8737   -0.0754 C   0  0  0  0  0  0  0  0  0  0  0  0
   -4.2776    0.3058   -0.6921 C   0  0  0  0  0  0  0  0  0  0  0  0
   -2.9839    0.7865   -0.4670 C   0  0  0  0  0  0  0  0  0  0  0  0
    4.6573   -0.3976    1.2130 H   0  0  0  0  0  0  0  0  0  0  0  0
    5.2544    1.8348    0.3905 H   0  0  0  0  0  0  0  0  0  0  0  0
    3.5883    3.2134   -0.8098 H   0  0  0  0  0  0  0  0  0  0  0  0
    1.3142    2.3595   -1.1920 H   0  0  0  0  0  0  0  0  0  0  0  0
    0.1606   -1.1007   -0.4681 H   0  0  0  0  0  0  0  0  0  0  0  0
   -0.0878    0.3452   -1.4632 H   0  0  0  0  0  0  0  0  0  0  0  0
   -0.3589    0.3076    1.6194 H   0  0  0  0  0  0  0  0  0  0  0  0
   -0.6876    1.6990    0.5470 H   0  0  0  0  0  0  0  0  0  0  0  0
   -1.8756   -1.6591    1.6377 H   0  0  0  0  0  0  0  0  0  0  0  0
   -4.1648   -2.4939    1.2360 H   0  0  0  0  0  0  0  0  0  0  0  0
   -5.7052   -1.2451   -0.2518 H   0  0  0  0  0  0  0  0  0  0  0  0
   -4.9486    0.8460   -1.3475 H   0  0  0  0  0  0  0  0  0  0  0  0
   -2.6623    1.6965   -0.9584 H   0  0  0  0  0  0  0  0  0  0  0  0
  1  2  1  0
  2  3  2  0
  2  4  2  0
  2  5  1  0
  5  6  2  0
  6  7  1  0
  7  8  2  0
  8  9  1  0
  9 10  2  0
 10 11  1  0
 11 12  1  0
 12 13  1  0
 13 14  2  0
 14 15  1  0
 15 16  2  0
 16 17  1  0
 17 18  2  0
 10  5  1  0
 18 13  1  0
  6 19  1  0
  7 20  1  0
  8 21  1  0
  9 22  1  0
 11 23  1  0
 11 24  1  0
 12 25  1  0
 12 26  1  0
 14 27  1  0
 15 28  1  0
 16 29  1  0
 17 30  1  0
 18 31  1  0
M  RAD  1   1   3
M  END
$$$$
