
     RDKit          3D

 31 32  0  0  0  0  0  0  0  0999 V2000
   -1.9129   -0.5403    3.0626 N   0  0  0  0  0  1  0  0  0  0  0  0
   -2.2401   -1.4277    1.6168 S   0  0  0  0  0  0  0  0  0  0  0  0
   -1.0471   -2.2656    1.2547 O   0  0  0  0  0  0  0  0  0  0  0  0
   -3.4052   -2.3434    1.8688 O   0  0  0  0  0  0  0  0  0  0  0  0
   -2.6174   -0.3010    0.3010 C   0  0  0  0  0  0  0  0  0  0  0  0
   -3.9290   -0.2785   -0.2045 C   0  0  0  0  0  0  0  0  0  0  0  0
   -4.2830    0.5965   -1.2322 C   0  0  0  0  0  0  0  0  0  0  0  0
   -3.3344    1.4630   -1.7699 C   0  0  0  0  0  0  0  0  0  0  0  0
   -2.0284    1.4601   -1.2798 C   0  0  0  0  0  0  0  0  0  0  0  0
   -1.6517    0.5918   -0.2385 C   0  0  0  0  0  0  0  0  0  0  0  0
   -0.2110    0.6215    0.2204 C   0  0  0  0  0  0  0  0  0  0  0  0
    0.6746   -0.2103   -0.7141 C   0  0  0  0  0  0  0  0  0  0  0  0
    2.0976   -0.2203   -0.2243 C   0  0  0  0  0  0  0  0  0  0  0  0
    2.9917    0.7871   -0.6238 C   0  0  0  0  0  0  0  0  0  0  0  0
    4.3040    0.7958   -0.1406 C   0  0  0  0  0  0  0  0  0  0  0  0
    4.7289   -0.1933    0.7507 C   0  0  0  0  0  0  0  0  0  0  0  0
    3.8410   -1.1907    1.1636 C   0  0  0  0  0  0  0  0  0  0  0  0
    2.5280   -1.2032    0.6827 C   0  0  0  0  0  0  0  0  0  0  0  0
   -4.6868   -0.9388    0.1960 H   0  0  0  0  0  0  0  0  0  0  0  0
   -5.2963    0.6017   -1.6128 H   0  0  0  0  0  0  0  0  0  0  0  0
   -3.6106    2.1381   -2.5696 H   0  0  0  0  0  0  0  0  0  0  0  0
   -1.3044    2.1376   -1.7161 H   0  0  0  0  0  0  0  0  0  0  0  0
   -0.1085    0.2613    1.2633 H   0  0  0  0  0  0  0  0  0  0  0  0
    0.1509    1.6737    0.2238 H   0  0  0  0  0  0  0  0  0  0  0  0
    0.2911   -1.2515   -0.7770 H   0  0  0  0  0  0  0  0  0  0  0  0
    0.6352    0.2128   -1.7422 H   0  0  0  0  0  0  0  0  0  0  0  0
    2.6719    1.5648   -1.3064 H   0  0  0  0  0  0  0  0  0  0  0  0
    4.9904    1.5716   -0.4543 H   0  0  0  0  0  0  0  0  0  0  0  0
    5.7445   -0.1844    1.1249 H   0  0  0  0  0  0  0  0  0  0  0  0
    4.1693   -1.9523    1.8591 H   0  0  0  0  0  0  0  0  0  0  0  0
    1.8476   -1.9761    1.0177 H   0  0  0  0  0  0  0  0  0  0  0  0
  1  2  1  0
  2  3  2  0
  2  4  2  0
  2  5  1  0
  5  6  2  0
  6  7  1  0
  7  8  2  0
  8  9  1  0
  9 10  2  0
 10 11  1  0
 11 12  1  0
 12 13  1  0
 13 14  2  0
 14 15  1  0
 15 16  2  0
 16 17  1  0
 17 18  2  0
 10  5  1  0
 18 13  1  0
  6 19  1  0
  7 20  1  0
  8 21  1  0
  9 22  1  0
 11 23  1  0
 11 24  1  0
 12 25  1  0
 12 26  1  0
 14 27  1  0
 15 28  1  0
 16 29  1  0
 17 30  1  0
 18 31  1  0
M  RAD  1   1   3
M  END
$$$$
