
     RDKit          3D

 31 32  0  0  0  0  0  0  0  0999 V2000
   -2.0275   -3.1069    0.9764 N   0  0  0  0  0  1  0  0  0  0  0  0
   -3.0822   -1.7532    1.1683 S   0  0  0  0  0  0  0  0  0  0  0  0
   -3.2545   -1.4483    2.6295 O   0  0  0  0  0  0  0  0  0  0  0  0
   -4.4235   -2.1175    0.5957 O   0  0  0  0  0  0  0  0  0  0  0  0
   -2.4280   -0.3283    0.3374 C   0  0  0  0  0  0  0  0  0  0  0  0
   -3.2262    0.2991   -0.6355 C   0  0  0  0  0  0  0  0  0  0  0  0
   -2.7892    1.4558   -1.2815 C   0  0  0  0  0  0  0  0  0  0  0  0
   -1.5536    2.0108   -0.9598 C   0  0  0  0  0  0  0  0  0  0  0  0
   -0.7462    1.4061    0.0027 C   0  0  0  0  0  0  0  0  0  0  0  0
   -1.1587    0.2291    0.6561 C   0  0  0  0  0  0  0  0  0  0  0  0
   -0.2017   -0.4067    1.6446 C   0  0  0  0  0  0  0  0  0  0  0  0
    0.8083   -1.3401    0.9564 C   0  0  0  0  0  0  0  0  0  0  0  0
    1.8054   -0.5818    0.1180 C   0  0  0  0  0  0  0  0  0  0  0  0
    1.6466   -0.4994   -1.2762 C   0  0  0  0  0  0  0  0  0  0  0  0
    2.5532    0.2358   -2.0459 C   0  0  0  0  0  0  0  0  0  0  0  0
    3.6217    0.8940   -1.4311 C   0  0  0  0  0  0  0  0  0  0  0  0
    3.7845    0.8199   -0.0451 C   0  0  0  0  0  0  0  0  0  0  0  0
    2.8794    0.0870    0.7288 C   0  0  0  0  0  0  0  0  0  0  0  0
   -4.1977   -0.1000   -0.8951 H   0  0  0  0  0  0  0  0  0  0  0  0
   -3.4148    1.9273   -2.0284 H   0  0  0  0  0  0  0  0  0  0  0  0
   -1.2186    2.9110   -1.4588 H   0  0  0  0  0  0  0  0  0  0  0  0
    0.2132    1.8535    0.2326 H   0  0  0  0  0  0  0  0  0  0  0  0
    0.3450    0.3855    2.2023 H   0  0  0  0  0  0  0  0  0  0  0  0
   -0.7499   -0.9796    2.4173 H   0  0  0  0  0  0  0  0  0  0  0  0
    1.3559   -1.9110    1.7375 H   0  0  0  0  0  0  0  0  0  0  0  0
    0.2749   -2.0870    0.3320 H   0  0  0  0  0  0  0  0  0  0  0  0
    0.8161   -0.9943   -1.7644 H   0  0  0  0  0  0  0  0  0  0  0  0
    2.4251    0.2983   -3.1188 H   0  0  0  0  0  0  0  0  0  0  0  0
    4.3219    1.4636   -2.0284 H   0  0  0  0  0  0  0  0  0  0  0  0
    4.6102    1.3332    0.4303 H   0  0  0  0  0  0  0  0  0  0  0  0
    3.0113    0.0439    1.8029 H   0  0  0  0  0  0  0  0  0  0  0  0
  1  2  1  0
  2  3  2  0
  2  4  2  0
  2  5  1  0
  5  6  2  0
  6  7  1  0
  7  8  2  0
  8  9  1  0
  9 10  2  0
 10 11  1  0
 11 12  1  0
 12 13  1  0
 13 14  2  0
 14 15  1  0
 15 16  2  0
 16 17  1  0
 17 18  2  0
 10  5  1  0
 18 13  1  0
  6 19  1  0
  7 20  1  0
  8 21  1  0
  9 22  1  0
 11 23  1  0
 11 24  1  0
 12 25  1  0
 12 26  1  0
 14 27  1  0
 15 28  1  0
 16 29  1  0
 17 30  1  0
 18 31  1  0
M  RAD  1   1   3
M  END
$$$$
