
     RDKit          3D

 31 32  0  0  0  0  0  0  0  0999 V2000
   -2.2559    1.5428   -2.4209 N   0  0  0  0  0  1  0  0  0  0  0  0
   -2.3445   -0.1396   -2.0382 S   0  0  0  0  0  0  0  0  0  0  0  0
   -3.4786   -0.7493   -2.8137 O   0  0  0  0  0  0  0  0  0  0  0  0
   -1.0695   -0.8207   -2.4468 O   0  0  0  0  0  0  0  0  0  0  0  0
   -2.6132   -0.3393   -0.2972 C   0  0  0  0  0  0  0  0  0  0  0  0
   -3.8483   -0.8538    0.1340 C   0  0  0  0  0  0  0  0  0  0  0  0
   -4.1166   -1.0211    1.4931 C   0  0  0  0  0  0  0  0  0  0  0  0
   -3.1574   -0.6761    2.4422 C   0  0  0  0  0  0  0  0  0  0  0  0
   -1.9270   -0.1597    2.0360 C   0  0  0  0  0  0  0  0  0  0  0  0
   -1.6383    0.0248    0.6712 C   0  0  0  0  0  0  0  0  0  0  0  0
   -0.2723    0.5595    0.3035 C   0  0  0  0  0  0  0  0  0  0  0  0
    0.7714   -0.5630    0.3119 C   0  0  0  0  0  0  0  0  0  0  0  0
    2.1181   -0.0363   -0.1049 C   0  0  0  0  0  0  0  0  0  0  0  0
    2.4836   -0.0193   -1.4614 C   0  0  0  0  0  0  0  0  0  0  0  0
    3.7214    0.5023   -1.8505 C   0  0  0  0  0  0  0  0  0  0  0  0
    4.5970    1.0183   -0.8911 C   0  0  0  0  0  0  0  0  0  0  0  0
    4.2346    1.0175    0.4587 C   0  0  0  0  0  0  0  0  0  0  0  0
    2.9977    0.4970    0.8521 C   0  0  0  0  0  0  0  0  0  0  0  0
   -4.6126   -1.1277   -0.5811 H   0  0  0  0  0  0  0  0  0  0  0  0
   -5.0714   -1.4200    1.8107 H   0  0  0  0  0  0  0  0  0  0  0  0
   -3.3666   -0.8104    3.4957 H   0  0  0  0  0  0  0  0  0  0  0  0
   -1.1925    0.0965    2.7901 H   0  0  0  0  0  0  0  0  0  0  0  0
   -0.2841    1.0616   -0.6842 H   0  0  0  0  0  0  0  0  0  0  0  0
    0.0261    1.3394    1.0389 H   0  0  0  0  0  0  0  0  0  0  0  0
    0.4585   -1.3802   -0.3734 H   0  0  0  0  0  0  0  0  0  0  0  0
    0.8402   -1.0027    1.3313 H   0  0  0  0  0  0  0  0  0  0  0  0
    1.8107   -0.4075   -2.2157 H   0  0  0  0  0  0  0  0  0  0  0  0
    4.0003    0.5096   -2.8963 H   0  0  0  0  0  0  0  0  0  0  0  0
    5.5541    1.4228   -1.1941 H   0  0  0  0  0  0  0  0  0  0  0  0
    4.9106    1.4236    1.2000 H   0  0  0  0  0  0  0  0  0  0  0  0
    2.7245    0.5111    1.9000 H   0  0  0  0  0  0  0  0  0  0  0  0
  1  2  1  0
  2  3  2  0
  2  4  2  0
  2  5  1  0
  5  6  2  0
  6  7  1  0
  7  8  2  0
  8  9  1  0
  9 10  2  0
 10 11  1  0
 11 12  1  0
 12 13  1  0
 13 14  2  0
 14 15  1  0
 15 16  2  0
 16 17  1  0
 17 18  2  0
 10  5  1  0
 18 13  1  0
  6 19  1  0
  7 20  1  0
  8 21  1  0
  9 22  1  0
 11 23  1  0
 11 24  1  0
 12 25  1  0
 12 26  1  0
 14 27  1  0
 15 28  1  0
 16 29  1  0
 17 30  1  0
 18 31  1  0
M  RAD  1   1   3
M  END
$$$$
