
     RDKit          3D

 31 32  0  0  0  0  0  0  0  0999 V2000
   -1.5405    3.2731    0.4943 N   0  0  0  0  0  1  0  0  0  0  0  0
   -2.0218    2.2259   -0.7927 S   0  0  0  0  0  0  0  0  0  0  0  0
   -3.1392    2.8828   -1.5538 O   0  0  0  0  0  0  0  0  0  0  0  0
   -0.8687    2.0127   -1.7316 O   0  0  0  0  0  0  0  0  0  0  0  0
   -2.5615    0.6744   -0.1257 C   0  0  0  0  0  0  0  0  0  0  0  0
   -3.9228    0.3393   -0.2297 C   0  0  0  0  0  0  0  0  0  0  0  0
   -4.4032   -0.8642    0.2879 C   0  0  0  0  0  0  0  0  0  0  0  0
   -3.5331   -1.7505    0.9183 C   0  0  0  0  0  0  0  0  0  0  0  0
   -2.1795   -1.4353    1.0362 C   0  0  0  0  0  0  0  0  0  0  0  0
   -1.6751   -0.2237    0.5286 C   0  0  0  0  0  0  0  0  0  0  0  0
   -0.1914    0.0365    0.6643 C   0  0  0  0  0  0  0  0  0  0  0  0
    0.5902   -0.6835   -0.4403 C   0  0  0  0  0  0  0  0  0  0  0  0
    2.0601   -0.3797   -0.3321 C   0  0  0  0  0  0  0  0  0  0  0  0
    2.8904   -1.1737    0.4767 C   0  0  0  0  0  0  0  0  0  0  0  0
    4.2494   -0.8694    0.6033 C   0  0  0  0  0  0  0  0  0  0  0  0
    4.7859    0.2333   -0.0672 C   0  0  0  0  0  0  0  0  0  0  0  0
    3.9633    1.0361   -0.8624 C   0  0  0  0  0  0  0  0  0  0  0  0
    2.6038    0.7353   -0.9919 C   0  0  0  0  0  0  0  0  0  0  0  0
   -4.6216    1.0099   -0.7121 H   0  0  0  0  0  0  0  0  0  0  0  0
   -5.4536   -1.1100    0.1991 H   0  0  0  0  0  0  0  0  0  0  0  0
   -3.9077   -2.6850    1.3157 H   0  0  0  0  0  0  0  0  0  0  0  0
   -1.5186   -2.1413    1.5246 H   0  0  0  0  0  0  0  0  0  0  0  0
    0.1560   -0.3317    1.6552 H   0  0  0  0  0  0  0  0  0  0  0  0
    0.0348    1.1210    0.6464 H   0  0  0  0  0  0  0  0  0  0  0  0
    0.4275   -1.7809   -0.3596 H   0  0  0  0  0  0  0  0  0  0  0  0
    0.2142   -0.3724   -1.4388 H   0  0  0  0  0  0  0  0  0  0  0  0
    2.4849   -2.0252    1.0091 H   0  0  0  0  0  0  0  0  0  0  0  0
    4.8859   -1.4865    1.2242 H   0  0  0  0  0  0  0  0  0  0  0  0
    5.8376    0.4683    0.0330 H   0  0  0  0  0  0  0  0  0  0  0  0
    4.3785    1.8938   -1.3758 H   0  0  0  0  0  0  0  0  0  0  0  0
    1.9757    1.3708   -1.6036 H   0  0  0  0  0  0  0  0  0  0  0  0
  1  2  1  0
  2  3  2  0
  2  4  2  0
  2  5  1  0
  5  6  2  0
  6  7  1  0
  7  8  2  0
  8  9  1  0
  9 10  2  0
 10 11  1  0
 11 12  1  0
 12 13  1  0
 13 14  2  0
 14 15  1  0
 15 16  2  0
 16 17  1  0
 17 18  2  0
 10  5  1  0
 18 13  1  0
  6 19  1  0
  7 20  1  0
  8 21  1  0
  9 22  1  0
 11 23  1  0
 11 24  1  0
 12 25  1  0
 12 26  1  0
 14 27  1  0
 15 28  1  0
 16 29  1  0
 17 30  1  0
 18 31  1  0
M  RAD  1   1   3
M  END
$$$$
