
     RDKit          3D

 31 32  0  0  0  0  0  0  0  0999 V2000
   -0.0757   -2.4054    0.8588 N   0  0  0  0  0  1  0  0  0  0  0  0
   -1.7319   -1.9927    0.6031 S   0  0  0  0  0  0  0  0  0  0  0  0
   -2.5150   -2.3969    1.8208 O   0  0  0  0  0  0  0  0  0  0  0  0
   -2.2690   -2.7494   -0.5790 O   0  0  0  0  0  0  0  0  0  0  0  0
   -1.8922   -0.2496    0.3199 C   0  0  0  0  0  0  0  0  0  0  0  0
   -2.6342    0.5054    1.2456 C   0  0  0  0  0  0  0  0  0  0  0  0
   -2.8544    1.8677    1.0447 C   0  0  0  0  0  0  0  0  0  0  0  0
   -2.3486    2.4964   -0.0893 C   0  0  0  0  0  0  0  0  0  0  0  0
   -1.6045    1.7691   -1.0174 C   0  0  0  0  0  0  0  0  0  0  0  0
   -1.3411    0.3992   -0.8210 C   0  0  0  0  0  0  0  0  0  0  0  0
   -0.4794   -0.3100   -1.8505 C   0  0  0  0  0  0  0  0  0  0  0  0
    0.9582    0.2369   -1.8961 C   0  0  0  0  0  0  0  0  0  0  0  0
    1.7297   -0.0884   -0.6432 C   0  0  0  0  0  0  0  0  0  0  0  0
    1.6546    0.7563    0.4775 C   0  0  0  0  0  0  0  0  0  0  0  0
    2.3519    0.4389    1.6469 C   0  0  0  0  0  0  0  0  0  0  0  0
    3.1295   -0.7207    1.7061 C   0  0  0  0  0  0  0  0  0  0  0  0
    3.2095   -1.5663    0.5962 C   0  0  0  0  0  0  0  0  0  0  0  0
    2.5100   -1.2551   -0.5741 C   0  0  0  0  0  0  0  0  0  0  0  0
   -3.0565    0.0404    2.1264 H   0  0  0  0  0  0  0  0  0  0  0  0
   -3.4303    2.4346    1.7649 H   0  0  0  0  0  0  0  0  0  0  0  0
   -2.5323    3.5509   -0.2500 H   0  0  0  0  0  0  0  0  0  0  0  0
   -1.2252    2.2809   -1.8931 H   0  0  0  0  0  0  0  0  0  0  0  0
   -0.9422   -0.1603   -2.8500 H   0  0  0  0  0  0  0  0  0  0  0  0
   -0.4357   -1.4045   -1.6964 H   0  0  0  0  0  0  0  0  0  0  0  0
    1.4758   -0.2060   -2.7750 H   0  0  0  0  0  0  0  0  0  0  0  0
    0.9553    1.3352   -2.0636 H   0  0  0  0  0  0  0  0  0  0  0  0
    1.0554    1.6577    0.4463 H   0  0  0  0  0  0  0  0  0  0  0  0
    2.2889    1.0920    2.5077 H   0  0  0  0  0  0  0  0  0  0  0  0
    3.6686   -0.9649    2.6122 H   0  0  0  0  0  0  0  0  0  0  0  0
    3.8089   -2.4661    0.6446 H   0  0  0  0  0  0  0  0  0  0  0  0
    2.5719   -1.9250   -1.4227 H   0  0  0  0  0  0  0  0  0  0  0  0
  1  2  1  0
  2  3  2  0
  2  4  2  0
  2  5  1  0
  5  6  2  0
  6  7  1  0
  7  8  2  0
  8  9  1  0
  9 10  2  0
 10 11  1  0
 11 12  1  0
 12 13  1  0
 13 14  2  0
 14 15  1  0
 15 16  2  0
 16 17  1  0
 17 18  2  0
 10  5  1  0
 18 13  1  0
  6 19  1  0
  7 20  1  0
  8 21  1  0
  9 22  1  0
 11 23  1  0
 11 24  1  0
 12 25  1  0
 12 26  1  0
 14 27  1  0
 15 28  1  0
 16 29  1  0
 17 30  1  0
 18 31  1  0
M  RAD  1   1   3
M  END
$$$$
