
     RDKit          3D

 31 32  0  0  0  0  0  0  0  0999 V2000
   -1.6178   -2.4917    2.1224 N   0  0  0  0  0  1  0  0  0  0  0  0
   -2.0271   -2.3143    0.4533 S   0  0  0  0  0  0  0  0  0  0  0  0
   -3.1240   -3.2871    0.1219 O   0  0  0  0  0  0  0  0  0  0  0  0
   -0.8329   -2.6365   -0.3991 O   0  0  0  0  0  0  0  0  0  0  0  0
   -2.5659   -0.6531    0.1473 C   0  0  0  0  0  0  0  0  0  0  0  0
   -3.9156   -0.4379   -0.1819 C   0  0  0  0  0  0  0  0  0  0  0  0
   -4.3952    0.8503   -0.4217 C   0  0  0  0  0  0  0  0  0  0  0  0
   -3.5359    1.9431   -0.3353 C   0  0  0  0  0  0  0  0  0  0  0  0
   -2.1941    1.7522   -0.0057 C   0  0  0  0  0  0  0  0  0  0  0  0
   -1.6910    0.4627    0.2481 C   0  0  0  0  0  0  0  0  0  0  0  0
   -0.2192    0.3286    0.5686 C   0  0  0  0  0  0  0  0  0  0  0  0
    0.6199    0.3393   -0.7141 C   0  0  0  0  0  0  0  0  0  0  0  0
    2.0785    0.1535   -0.3936 C   0  0  0  0  0  0  0  0  0  0  0  0
    2.8890    1.2654   -0.1093 C   0  0  0  0  0  0  0  0  0  0  0  0
    4.2360    1.0884    0.2220 C   0  0  0  0  0  0  0  0  0  0  0  0
    4.7797   -0.1978    0.2815 C   0  0  0  0  0  0  0  0  0  0  0  0
    3.9762   -1.3096    0.0137 C   0  0  0  0  0  0  0  0  0  0  0  0
    2.6287   -1.1371   -0.3181 C   0  0  0  0  0  0  0  0  0  0  0  0
   -4.6059   -1.2680   -0.2535 H   0  0  0  0  0  0  0  0  0  0  0  0
   -5.4365    1.0010   -0.6760 H   0  0  0  0  0  0  0  0  0  0  0  0
   -3.9096    2.9409   -0.5255 H   0  0  0  0  0  0  0  0  0  0  0  0
   -1.5412    2.6149    0.0502 H   0  0  0  0  0  0  0  0  0  0  0  0
   -0.0118   -0.5904    1.1520 H   0  0  0  0  0  0  0  0  0  0  0  0
    0.0940    1.1780    1.2155 H   0  0  0  0  0  0  0  0  0  0  0  0
    0.4737    1.3036   -1.2490 H   0  0  0  0  0  0  0  0  0  0  0  0
    0.2797   -0.4667   -1.3995 H   0  0  0  0  0  0  0  0  0  0  0  0
    2.4773    2.2666   -0.1425 H   0  0  0  0  0  0  0  0  0  0  0  0
    4.8575    1.9482    0.4362 H   0  0  0  0  0  0  0  0  0  0  0  0
    5.8221   -0.3332    0.5394 H   0  0  0  0  0  0  0  0  0  0  0  0
    4.3966   -2.3056    0.0667 H   0  0  0  0  0  0  0  0  0  0  0  0
    2.0149   -2.0074   -0.5142 H   0  0  0  0  0  0  0  0  0  0  0  0
  1  2  1  0
  2  3  2  0
  2  4  2  0
  2  5  1  0
  5  6  2  0
  6  7  1  0
  7  8  2  0
  8  9  1  0
  9 10  2  0
 10 11  1  0
 11 12  1  0
 12 13  1  0
 13 14  2  0
 14 15  1  0
 15 16  2  0
 16 17  1  0
 17 18  2  0
 10  5  1  0
 18 13  1  0
  6 19  1  0
  7 20  1  0
  8 21  1  0
  9 22  1  0
 11 23  1  0
 11 24  1  0
 12 25  1  0
 12 26  1  0
 14 27  1  0
 15 28  1  0
 16 29  1  0
 17 30  1  0
 18 31  1  0
M  RAD  1   1   3
M  END
$$$$
