
     RDKit          3D

 31 32  0  0  0  0  0  0  0  0999 V2000
   -2.1351    2.6318    1.7978 N   0  0  0  0  0  1  0  0  0  0  0  0
   -3.2029    1.7636    0.7550 S   0  0  0  0  0  0  0  0  0  0  0  0
   -4.4665    1.4705    1.5145 O   0  0  0  0  0  0  0  0  0  0  0  0
   -3.5485    2.6119   -0.4362 O   0  0  0  0  0  0  0  0  0  0  0  0
   -2.4515    0.2515    0.2093 C   0  0  0  0  0  0  0  0  0  0  0  0
   -3.1264   -0.9558    0.4626 C   0  0  0  0  0  0  0  0  0  0  0  0
   -2.6132   -2.1708    0.0081 C   0  0  0  0  0  0  0  0  0  0  0  0
   -1.4241   -2.1996   -0.7154 C   0  0  0  0  0  0  0  0  0  0  0  0
   -0.7388   -1.0145   -0.9793 C   0  0  0  0  0  0  0  0  0  0  0  0
   -1.2286    0.2219   -0.5167 C   0  0  0  0  0  0  0  0  0  0  0  0
   -0.3979    1.4605   -0.7869 C   0  0  0  0  0  0  0  0  0  0  0  0
    0.6856    1.6774    0.2825 C   0  0  0  0  0  0  0  0  0  0  0  0
    1.7774    0.6408    0.2061 C   0  0  0  0  0  0  0  0  0  0  0  0
    2.7715    0.7324   -0.7823 C   0  0  0  0  0  0  0  0  0  0  0  0
    3.7640   -0.2481   -0.8760 C   0  0  0  0  0  0  0  0  0  0  0  0
    3.7686   -1.3274    0.0119 C   0  0  0  0  0  0  0  0  0  0  0  0
    2.7803   -1.4285    0.9948 C   0  0  0  0  0  0  0  0  0  0  0  0
    1.7868   -0.4497    1.0930 C   0  0  0  0  0  0  0  0  0  0  0  0
   -4.0605   -0.9632    1.0085 H   0  0  0  0  0  0  0  0  0  0  0  0
   -3.1441   -3.0919    0.2111 H   0  0  0  0  0  0  0  0  0  0  0  0
   -1.0303   -3.1429   -1.0713 H   0  0  0  0  0  0  0  0  0  0  0  0
    0.1869   -1.0625   -1.5398 H   0  0  0  0  0  0  0  0  0  0  0  0
    0.0794    1.3826   -1.7887 H   0  0  0  0  0  0  0  0  0  0  0  0
   -1.0357    2.3640   -0.8390 H   0  0  0  0  0  0  0  0  0  0  0  0
    1.1348    2.6838    0.1361 H   0  0  0  0  0  0  0  0  0  0  0  0
    0.2297    1.6771    1.2946 H   0  0  0  0  0  0  0  0  0  0  0  0
    2.7737    1.5595   -1.4814 H   0  0  0  0  0  0  0  0  0  0  0  0
    4.5277   -0.1730   -1.6392 H   0  0  0  0  0  0  0  0  0  0  0  0
    4.5363   -2.0867   -0.0635 H   0  0  0  0  0  0  0  0  0  0  0  0
    2.7817   -2.2676    1.6784 H   0  0  0  0  0  0  0  0  0  0  0  0
    1.0200   -0.5472    1.8515 H   0  0  0  0  0  0  0  0  0  0  0  0
  1  2  1  0
  2  3  2  0
  2  4  2  0
  2  5  1  0
  5  6  2  0
  6  7  1  0
  7  8  2  0
  8  9  1  0
  9 10  2  0
 10 11  1  0
 11 12  1  0
 12 13  1  0
 13 14  2  0
 14 15  1  0
 15 16  2  0
 16 17  1  0
 17 18  2  0
 10  5  1  0
 18 13  1  0
  6 19  1  0
  7 20  1  0
  8 21  1  0
  9 22  1  0
 11 23  1  0
 11 24  1  0
 12 25  1  0
 12 26  1  0
 14 27  1  0
 15 28  1  0
 16 29  1  0
 17 30  1  0
 18 31  1  0
M  RAD  1   1   3
M  END
$$$$
