
     RDKit          3D

 31 32  0  0  0  0  0  0  0  0999 V2000
   -1.2282   -3.3190    1.4846 N   0  0  0  0  0  1  0  0  0  0  0  0
   -2.6072   -2.2842    1.3906 S   0  0  0  0  0  0  0  0  0  0  0  0
   -2.9639   -1.7892    2.7638 O   0  0  0  0  0  0  0  0  0  0  0  0
   -3.7615   -3.0865    0.8581 O   0  0  0  0  0  0  0  0  0  0  0  0
   -2.2802   -0.9017    0.3274 C   0  0  0  0  0  0  0  0  0  0  0  0
   -3.1359   -0.6877   -0.7677 C   0  0  0  0  0  0  0  0  0  0  0  0
   -2.9631    0.4143   -1.6054 C   0  0  0  0  0  0  0  0  0  0  0  0
   -1.9405    1.3260   -1.3579 C   0  0  0  0  0  0  0  0  0  0  0  0
   -1.0810    1.1343   -0.2770 C   0  0  0  0  0  0  0  0  0  0  0  0
   -1.2255    0.0208    0.5725 C   0  0  0  0  0  0  0  0  0  0  0  0
   -0.2158   -0.1560    1.6889 C   0  0  0  0  0  0  0  0  0  0  0  0
    1.0501   -0.8898    1.2159 C   0  0  0  0  0  0  0  0  0  0  0  0
    1.8798   -0.0490    0.2794 C   0  0  0  0  0  0  0  0  0  0  0  0
    2.6952    0.9772    0.7850 C   0  0  0  0  0  0  0  0  0  0  0  0
    3.4378    1.7805   -0.0859 C   0  0  0  0  0  0  0  0  0  0  0  0
    3.3683    1.5684   -1.4656 C   0  0  0  0  0  0  0  0  0  0  0  0
    2.5556    0.5529   -1.9768 C   0  0  0  0  0  0  0  0  0  0  0  0
    1.8126   -0.2536   -1.1096 C   0  0  0  0  0  0  0  0  0  0  0  0
   -3.9490   -1.3704   -0.9758 H   0  0  0  0  0  0  0  0  0  0  0  0
   -3.6298    0.5655   -2.4446 H   0  0  0  0  0  0  0  0  0  0  0  0
   -1.8113    2.1830   -2.0064 H   0  0  0  0  0  0  0  0  0  0  0  0
   -0.2896    1.8544   -0.1075 H   0  0  0  0  0  0  0  0  0  0  0  0
    0.0641    0.8372    2.1044 H   0  0  0  0  0  0  0  0  0  0  0  0
   -0.6557   -0.7125    2.5391 H   0  0  0  0  0  0  0  0  0  0  0  0
    1.6646   -1.1503    2.1050 H   0  0  0  0  0  0  0  0  0  0  0  0
    0.7766   -1.8481    0.7269 H   0  0  0  0  0  0  0  0  0  0  0  0
    2.7510    1.1568    1.8516 H   0  0  0  0  0  0  0  0  0  0  0  0
    4.0646    2.5697    0.3086 H   0  0  0  0  0  0  0  0  0  0  0  0
    3.9419    2.1926   -2.1384 H   0  0  0  0  0  0  0  0  0  0  0  0
    2.4985    0.3931   -3.0458 H   0  0  0  0  0  0  0  0  0  0  0  0
    1.1775   -1.0288   -1.5203 H   0  0  0  0  0  0  0  0  0  0  0  0
  1  2  1  0
  2  3  2  0
  2  4  2  0
  2  5  1  0
  5  6  2  0
  6  7  1  0
  7  8  2  0
  8  9  1  0
  9 10  2  0
 10 11  1  0
 11 12  1  0
 12 13  1  0
 13 14  2  0
 14 15  1  0
 15 16  2  0
 16 17  1  0
 17 18  2  0
 10  5  1  0
 18 13  1  0
  6 19  1  0
  7 20  1  0
  8 21  1  0
  9 22  1  0
 11 23  1  0
 11 24  1  0
 12 25  1  0
 12 26  1  0
 14 27  1  0
 15 28  1  0
 16 29  1  0
 17 30  1  0
 18 31  1  0
M  RAD  1   1   3
M  END
$$$$
