 xtb: 6.7.1 (edcfbbe)
          07312615213D

247267  0     0  0            999 V2000
    0.2354   -1.7621   -0.7653 N   0  0  0  0  0  0  0  0  0  0  0  0
   -0.0375   -1.0553    1.9824 N   0  0  0  0  0  0  0  0  0  0  0  0
   -0.3241   -1.0202   -3.0681 C   0  0  0  0  0  0  0  0  0  0  0  0
    0.1010   -1.9707   -2.1133 C   0  0  0  0  0  0  0  0  0  0  0  0
    0.5181   -3.3202   -2.4440 C   0  0  0  0  0  0  0  0  0  0  0  0
    0.5019   -3.7461   -3.4483 H   0  0  0  0  0  0  0  0  0  0  0  0
    0.9319   -3.9016   -1.2786 C   0  0  0  0  0  0  0  0  0  0  0  0
    1.3253   -4.9074   -1.1254 H   0  0  0  0  0  0  0  0  0  0  0  0
    0.7195   -2.9292   -0.2240 C   0  0  0  0  0  0  0  0  0  0  0  0
    0.8896   -3.2035    1.1481 C   0  0  0  0  0  0  0  0  0  0  0  0
    0.4662   -2.3195    2.1603 C   0  0  0  0  0  0  0  0  0  0  0  0
    0.3787   -2.6823    3.5625 C   0  0  0  0  0  0  0  0  0  0  0  0
    0.7119   -3.6355    3.9756 H   0  0  0  0  0  0  0  0  0  0  0  0
   -0.2260   -1.6412    4.2068 C   0  0  0  0  0  0  0  0  0  0  0  0
   -0.4853   -1.5499    5.2624 H   0  0  0  0  0  0  0  0  0  0  0  0
   -0.4703   -0.6170    3.2082 C   0  0  0  0  0  0  0  0  0  0  0  0
    1.4349   -4.5467    1.5555 C   0  0  0  0  0  0  0  0  0  0  0  0
    2.7720   -4.6850    1.9979 C   0  0  0  0  0  0  0  0  0  0  0  0
    3.2893   -5.9349    2.3846 C   0  0  0  0  0  0  0  0  0  0  0  0
    2.4656   -7.0626    2.3214 C   0  0  0  0  0  0  0  0  0  0  0  0
    2.8684   -8.0418    2.6118 H   0  0  0  0  0  0  0  0  0  0  0  0
    1.1396   -6.9657    1.8912 C   0  0  0  0  0  0  0  0  0  0  0  0
    0.6262   -5.7083    1.5206 C   0  0  0  0  0  0  0  0  0  0  0  0
   -0.7891    1.6112    1.2149 N   0  0  0  0  0  0  0  0  0  0  0  0
   -0.4696    0.9157   -1.5152 N   0  0  0  0  0  0  0  0  0  0  0  0
   -1.0391    0.6422    3.4918 C   0  0  0  0  0  0  0  0  0  0  0  0
   -1.1218    1.6859    2.5438 C   0  0  0  0  0  0  0  0  0  0  0  0
   -1.5066    3.0439    2.8726 C   0  0  0  0  0  0  0  0  0  0  0  0
   -1.8364    3.3712    3.8596 H   0  0  0  0  0  0  0  0  0  0  0  0
   -1.3552    3.7860    1.7341 C   0  0  0  0  0  0  0  0  0  0  0  0
   -1.5427    4.8504    1.5892 H   0  0  0  0  0  0  0  0  0  0  0  0
   -0.9423    2.8729    0.6887 C   0  0  0  0  0  0  0  0  0  0  0  0
   -0.8099    3.2256   -0.6679 C   0  0  0  0  0  0  0  0  0  0  0  0
   -0.6699    2.2626   -1.6859 C   0  0  0  0  0  0  0  0  0  0  0  0
   -0.8603    2.5521   -3.0933 C   0  0  0  0  0  0  0  0  0  0  0  0
   -1.0374    3.5476   -3.5019 H   0  0  0  0  0  0  0  0  0  0  0  0
   -0.8256    1.3567   -3.7529 C   0  0  0  0  0  0  0  0  0  0  0  0
   -0.9645    1.1619   -4.8172 H   0  0  0  0  0  0  0  0  0  0  0  0
   -0.5475    0.3376   -2.7584 C   0  0  0  0  0  0  0  0  0  0  0  0
   -0.8880    4.6725   -1.0726 C   0  0  0  0  0  0  0  0  0  0  0  0
    0.2970    5.3668   -1.4197 C   0  0  0  0  0  0  0  0  0  0  0  0
    0.2573    6.7038   -1.8555 C   0  0  0  0  0  0  0  0  0  0  0  0
   -0.9740    7.3634   -1.9178 C   0  0  0  0  0  0  0  0  0  0  0  0
   -1.0091    8.4096   -2.2489 H   0  0  0  0  0  0  0  0  0  0  0  0
   -2.1619    6.7136   -1.5697 C   0  0  0  0  0  0  0  0  0  0  0  0
   -2.1175    5.3664   -1.1642 C   0  0  0  0  0  0  0  0  0  0  0  0
   -0.1688   -0.0413    0.2328 Fe  0  0  0  0  0  0  0  0  0  0  0  0
   -2.3925   -0.6835    0.1913 Cl  0  0  0  0  0  0  0  0  0  0  0  0
   -1.6393    0.8673    4.8580 C   0  0  0  0  0  0  0  0  0  0  0  0
   -0.8876    1.4250    5.9265 C   0  0  0  0  0  0  0  0  0  0  0  0
   -2.9987    0.5064    5.0748 C   0  0  0  0  0  0  0  0  0  0  0  0
   -1.4816    1.6240    7.1890 C   0  0  0  0  0  0  0  0  0  0  0  0
    0.4618    1.7803    5.6685 N   0  0  0  0  0  0  0  0  0  0  0  0
   -3.5890    0.7303    6.3373 C   0  0  0  0  0  0  0  0  0  0  0  0
   -3.7105   -0.0989    4.0119 N   0  0  0  0  0  0  0  0  0  0  0  0
   -0.8812    2.0410    8.0020 H   0  0  0  0  0  0  0  0  0  0  0  0
   -2.8245    1.2795    7.3700 C   0  0  0  0  0  0  0  0  0  0  0  0
    1.4258    2.2068    6.5540 C   0  0  0  0  0  0  0  0  0  0  0  0
    0.7449    1.6699    4.6933 H   0  0  0  0  0  0  0  0  0  0  0  0
   -4.6403    0.4679    6.4803 H   0  0  0  0  0  0  0  0  0  0  0  0
   -5.0379   -0.4789    3.9813 C   0  0  0  0  0  0  0  0  0  0  0  0
   -3.1702   -0.2808    3.1608 H   0  0  0  0  0  0  0  0  0  0  0  0
   -3.2896    1.4427    8.3508 H   0  0  0  0  0  0  0  0  0  0  0  0
    1.2668    2.3285    7.7637 O   0  0  0  0  0  0  0  0  0  0  0  0
    2.7580    2.5285    5.9095 C   0  0  0  0  0  0  0  0  0  0  0  0
   -5.8484   -0.2375    4.8706 O   0  0  0  0  0  0  0  0  0  0  0  0
   -5.4329   -1.2477    2.7431 C   0  0  0  0  0  0  0  0  0  0  0  0
    4.0093    2.1580    6.6642 C   0  0  0  0  0  0  0  0  0  0  0  0
    2.8245    2.5174    4.8162 H   0  0  0  0  0  0  0  0  0  0  0  0
    3.5845    3.6060    6.6217 C   0  0  0  0  0  0  0  0  0  0  0  0
   -6.7806   -0.9617    2.1290 C   0  0  0  0  0  0  0  0  0  0  0  0
   -4.6407   -1.5646    2.0551 H   0  0  0  0  0  0  0  0  0  0  0  0
   -6.6040   -2.2181    2.9481 C   0  0  0  0  0  0  0  0  0  0  0  0
    3.8816    1.6463    7.6213 H   0  0  0  0  0  0  0  0  0  0  0  0
    4.8803    1.8755    6.0695 H   0  0  0  0  0  0  0  0  0  0  0  0
    3.1378    4.0151    7.5314 H   0  0  0  0  0  0  0  0  0  0  0  0
    4.3671    4.5658    5.7829 C   0  0  0  0  0  0  0  0  0  0  0  0
   -7.3799   -0.1737    2.5938 H   0  0  0  0  0  0  0  0  0  0  0  0
   -6.8547   -1.0629    1.0427 H   0  0  0  0  0  0  0  0  0  0  0  0
   -7.0355   -2.2131    3.9539 H   0  0  0  0  0  0  0  0  0  0  0  0
   -6.5687   -3.5462    2.2694 C   0  0  0  0  0  0  0  0  0  0  0  0
    4.4498    5.7685    6.3769 O   0  0  0  0  0  0  0  0  0  0  0  0
    4.8795    4.2955    4.7136 O   0  0  0  0  0  0  0  0  0  0  0  0
   -7.1837   -4.4851    3.0221 O   0  0  0  0  0  0  0  0  0  0  0  0
   -6.0706   -3.7725    1.1851 O   0  0  0  0  0  0  0  0  0  0  0  0
    5.1948    6.8301    5.7092 C   0  0  0  0  0  0  0  0  0  0  0  0
   -7.2612   -5.8410    2.4993 C   0  0  0  0  0  0  0  0  0  0  0  0
    4.2191    7.6945    4.8986 C   0  0  0  0  0  0  0  0  0  0  0  0
    5.9383    7.6026    6.7978 C   0  0  0  0  0  0  0  0  0  0  0  0
    5.9054    6.3377    5.0216 H   0  0  0  0  0  0  0  0  0  0  0  0
   -7.2662   -6.7774    3.7086 C   0  0  0  0  0  0  0  0  0  0  0  0
   -8.5056   -5.9723    1.6140 C   0  0  0  0  0  0  0  0  0  0  0  0
   -6.3556   -6.0036    1.8844 H   0  0  0  0  0  0  0  0  0  0  0  0
    3.7190    7.0880    4.1259 H   0  0  0  0  0  0  0  0  0  0  0  0
    3.4569    8.1321    5.5569 H   0  0  0  0  0  0  0  0  0  0  0  0
    4.7637    8.5113    4.4053 H   0  0  0  0  0  0  0  0  0  0  0  0
    6.6102    6.9391    7.3571 H   0  0  0  0  0  0  0  0  0  0  0  0
    6.5432    8.4051    6.3549 H   0  0  0  0  0  0  0  0  0  0  0  0
    5.2355    8.0534    7.5101 H   0  0  0  0  0  0  0  0  0  0  0  0
   -6.3601   -6.6319    4.3109 H   0  0  0  0  0  0  0  0  0  0  0  0
   -8.1444   -6.5894    4.3445 H   0  0  0  0  0  0  0  0  0  0  0  0
   -7.3056   -7.8251    3.3799 H   0  0  0  0  0  0  0  0  0  0  0  0
   -8.4439   -5.2782    0.7648 H   0  0  0  0  0  0  0  0  0  0  0  0
   -8.5898   -6.9957    1.2227 H   0  0  0  0  0  0  0  0  0  0  0  0
   -9.4177   -5.7532    2.1900 H   0  0  0  0  0  0  0  0  0  0  0  0
   -0.5418   -1.5050   -4.4798 C   0  0  0  0  0  0  0  0  0  0  0  0
    0.4311   -1.3028   -5.4960 C   0  0  0  0  0  0  0  0  0  0  0  0
   -1.7371   -2.2096   -4.7916 C   0  0  0  0  0  0  0  0  0  0  0  0
    0.2445   -1.8521   -6.7799 C   0  0  0  0  0  0  0  0  0  0  0  0
    1.5651   -0.5164   -5.1691 N   0  0  0  0  0  0  0  0  0  0  0  0
   -1.9120   -2.7630   -6.0777 C   0  0  0  0  0  0  0  0  0  0  0  0
   -2.7365   -2.2867   -3.7936 N   0  0  0  0  0  0  0  0  0  0  0  0
    1.0097   -1.6908   -7.5445 H   0  0  0  0  0  0  0  0  0  0  0  0
   -0.9183   -2.5835   -7.0447 C   0  0  0  0  0  0  0  0  0  0  0  0
    2.5177    0.0193   -6.0078 C   0  0  0  0  0  0  0  0  0  0  0  0
    1.5683   -0.1777   -4.2055 H   0  0  0  0  0  0  0  0  0  0  0  0
   -2.8266   -3.3230   -6.2908 H   0  0  0  0  0  0  0  0  0  0  0  0
   -3.9621   -2.9195   -3.8496 C   0  0  0  0  0  0  0  0  0  0  0  0
   -2.5375   -1.7641   -2.9363 H   0  0  0  0  0  0  0  0  0  0  0  0
   -1.0597   -3.0181   -8.0428 H   0  0  0  0  0  0  0  0  0  0  0  0
    2.6424   -0.2506   -7.1966 O   0  0  0  0  0  0  0  0  0  0  0  0
    3.4048    1.0453   -5.3354 C   0  0  0  0  0  0  0  0  0  0  0  0
   -4.3252   -3.6501   -4.7661 O   0  0  0  0  0  0  0  0  0  0  0  0
   -4.8574   -2.6188   -2.6721 C   0  0  0  0  0  0  0  0  0  0  0  0
    3.7257    2.2874   -6.1302 C   0  0  0  0  0  0  0  0  0  0  0  0
    3.3276    1.1660   -4.2492 H   0  0  0  0  0  0  0  0  0  0  0  0
    4.8010    1.2466   -5.9240 C   0  0  0  0  0  0  0  0  0  0  0  0
   -5.7602   -3.7110   -2.1592 C   0  0  0  0  0  0  0  0  0  0  0  0
   -4.5111   -1.8871   -1.9327 H   0  0  0  0  0  0  0  0  0  0  0  0
   -6.3592   -2.6068   -2.9961 C   0  0  0  0  0  0  0  0  0  0  0  0
    3.3037    2.3531   -7.1366 H   0  0  0  0  0  0  0  0  0  0  0  0
    3.8216    3.2247   -5.5771 H   0  0  0  0  0  0  0  0  0  0  0  0
    5.0594    0.6177   -6.7801 H   0  0  0  0  0  0  0  0  0  0  0  0
    5.9116    1.5702   -4.9739 C   0  0  0  0  0  0  0  0  0  0  0  0
   -5.6831   -4.6848   -2.6499 H   0  0  0  0  0  0  0  0  0  0  0  0
   -5.9570   -3.7113   -1.0838 H   0  0  0  0  0  0  0  0  0  0  0  0
   -6.6113   -2.8540   -4.0320 H   0  0  0  0  0  0  0  0  0  0  0  0
   -7.2162   -1.5648   -2.3574 C   0  0  0  0  0  0  0  0  0  0  0  0
    7.0884    1.1131   -5.4324 O   0  0  0  0  0  0  0  0  0  0  0  0
    5.7717    2.1841   -3.9325 O   0  0  0  0  0  0  0  0  0  0  0  0
   -8.2025   -1.1746   -3.1934 O   0  0  0  0  0  0  0  0  0  0  0  0
   -7.0701   -1.1224   -1.2357 O   0  0  0  0  0  0  0  0  0  0  0  0
    8.2893    1.3624   -4.6440 C   0  0  0  0  0  0  0  0  0  0  0  0
   -9.1388   -0.1637   -2.7235 C   0  0  0  0  0  0  0  0  0  0  0  0
    9.2071    0.1554   -4.8439 C   0  0  0  0  0  0  0  0  0  0  0  0
    8.9095    2.6908   -5.0869 C   0  0  0  0  0  0  0  0  0  0  0  0
    7.9699    1.4396   -3.5872 H   0  0  0  0  0  0  0  0  0  0  0  0
   -8.5741    1.2325   -3.0152 C   0  0  0  0  0  0  0  0  0  0  0  0
  -10.4714   -0.4451   -3.4168 C   0  0  0  0  0  0  0  0  0  0  0  0
   -9.2314   -0.2948   -1.6300 H   0  0  0  0  0  0  0  0  0  0  0  0
    8.6997   -0.7654   -4.5292 H   0  0  0  0  0  0  0  0  0  0  0  0
    9.4946    0.0553   -5.9016 H   0  0  0  0  0  0  0  0  0  0  0  0
   10.1259    0.2756   -4.2540 H   0  0  0  0  0  0  0  0  0  0  0  0
    8.2068    3.5173   -4.9201 H   0  0  0  0  0  0  0  0  0  0  0  0
    9.8246    2.8957   -4.5146 H   0  0  0  0  0  0  0  0  0  0  0  0
    9.1773    2.6584   -6.1543 H   0  0  0  0  0  0  0  0  0  0  0  0
   -7.6196    1.3781   -2.4838 H   0  0  0  0  0  0  0  0  0  0  0  0
   -8.4070    1.3629   -4.0934 H   0  0  0  0  0  0  0  0  0  0  0  0
   -9.2810    2.0039   -2.6794 H   0  0  0  0  0  0  0  0  0  0  0  0
  -10.8232   -1.4608   -3.1873 H   0  0  0  0  0  0  0  0  0  0  0  0
  -11.2372    0.2670   -3.0813 H   0  0  0  0  0  0  0  0  0  0  0  0
  -10.3736   -0.3538   -4.5065 H   0  0  0  0  0  0  0  0  0  0  0  0
    4.3274   -6.0184    2.7270 H   0  0  0  0  0  0  0  0  0  0  0  0
    0.5023   -7.8559    1.8382 H   0  0  0  0  0  0  0  0  0  0  0  0
    1.1810    7.2151   -2.1500 H   0  0  0  0  0  0  0  0  0  0  0  0
   -3.1221    7.2411   -1.6148 H   0  0  0  0  0  0  0  0  0  0  0  0
    3.5143   -3.5259    2.0279 O   0  0  0  0  0  0  0  0  0  0  0  0
   -0.6572   -5.5263    1.0613 O   0  0  0  0  0  0  0  0  0  0  0  0
    1.4510    4.6166   -1.3725 O   0  0  0  0  0  0  0  0  0  0  0  0
   -3.2332    4.6586   -0.7812 O   0  0  0  0  0  0  0  0  0  0  0  0
    4.8446   -3.5573    2.4453 C   0  0  0  0  0  0  0  0  0  0  0  0
    5.8622   -3.8421    1.5242 C   0  0  0  0  0  0  0  0  0  0  0  0
    5.1530   -3.2240    3.7709 C   0  0  0  0  0  0  0  0  0  0  0  0
    7.1989   -3.7997    1.9411 C   0  0  0  0  0  0  0  0  0  0  0  0
    5.5963   -4.0892    0.4912 H   0  0  0  0  0  0  0  0  0  0  0  0
    6.4937   -3.1836    4.1764 C   0  0  0  0  0  0  0  0  0  0  0  0
    4.3363   -2.9962    4.4635 H   0  0  0  0  0  0  0  0  0  0  0  0
    7.5182   -3.4728    3.2655 C   0  0  0  0  0  0  0  0  0  0  0  0
    7.9978   -4.0212    1.2242 H   0  0  0  0  0  0  0  0  0  0  0  0
    6.7405   -2.9233    5.2118 H   0  0  0  0  0  0  0  0  0  0  0  0
    8.5676   -3.4414    3.5875 H   0  0  0  0  0  0  0  0  0  0  0  0
   -1.6294   -6.5081    1.2225 C   0  0  0  0  0  0  0  0  0  0  0  0
   -2.0261   -6.9443    2.4949 C   0  0  0  0  0  0  0  0  0  0  0  0
   -2.2651   -6.9944    0.0717 C   0  0  0  0  0  0  0  0  0  0  0  0
   -3.0522   -7.8904    2.6075 C   0  0  0  0  0  0  0  0  0  0  0  0
   -1.5320   -6.5367    3.3832 H   0  0  0  0  0  0  0  0  0  0  0  0
   -3.2958   -7.9338    0.1988 C   0  0  0  0  0  0  0  0  0  0  0  0
   -1.9448   -6.6198   -0.9058 H   0  0  0  0  0  0  0  0  0  0  0  0
   -3.6880   -8.3899    1.4636 C   0  0  0  0  0  0  0  0  0  0  0  0
   -3.3622   -8.2367    3.5997 H   0  0  0  0  0  0  0  0  0  0  0  0
   -3.7950   -8.3141   -0.6991 H   0  0  0  0  0  0  0  0  0  0  0  0
   -4.4910   -9.1327    1.5590 H   0  0  0  0  0  0  0  0  0  0  0  0
    2.7188    5.1667   -1.2523 C   0  0  0  0  0  0  0  0  0  0  0  0
    3.0143    6.2350   -0.3899 C   0  0  0  0  0  0  0  0  0  0  0  0
    3.7462    4.5322   -1.9694 C   0  0  0  0  0  0  0  0  0  0  0  0
    4.3388    6.6763   -0.2705 C   0  0  0  0  0  0  0  0  0  0  0  0
    2.2134    6.7119    0.1858 H   0  0  0  0  0  0  0  0  0  0  0  0
    5.0655    4.9751   -1.8334 C   0  0  0  0  0  0  0  0  0  0  0  0
    3.5028    3.6870   -2.6211 H   0  0  0  0  0  0  0  0  0  0  0  0
    5.3674    6.0538   -0.9899 C   0  0  0  0  0  0  0  0  0  0  0  0
    4.5686    7.5143    0.3998 H   0  0  0  0  0  0  0  0  0  0  0  0
    5.8508    4.4594   -2.3970 H   0  0  0  0  0  0  0  0  0  0  0  0
    6.4014    6.4080   -0.8880 H   0  0  0  0  0  0  0  0  0  0  0  0
   -4.5127    5.0517   -1.1559 C   0  0  0  0  0  0  0  0  0  0  0  0
   -4.8623    5.2514   -2.4993 C   0  0  0  0  0  0  0  0  0  0  0  0
   -5.4798    5.1574   -0.1458 C   0  0  0  0  0  0  0  0  0  0  0  0
   -6.1848    5.5777   -2.8239 C   0  0  0  0  0  0  0  0  0  0  0  0
   -4.1005    5.1434   -3.2786 H   0  0  0  0  0  0  0  0  0  0  0  0
   -6.8003    5.4768   -0.4851 C   0  0  0  0  0  0  0  0  0  0  0  0
   -5.1798    4.9781    0.8914 H   0  0  0  0  0  0  0  0  0  0  0  0
   -7.1566    5.6942   -1.8219 C   0  0  0  0  0  0  0  0  0  0  0  0
   -6.4609    5.7341   -3.8724 H   0  0  0  0  0  0  0  0  0  0  0  0
   -7.5571    5.5580    0.3025 H   0  0  0  0  0  0  0  0  0  0  0  0
   -8.1921    5.9488   -2.0840 H   0  0  0  0  0  0  0  0  0  0  0  0
    1.3846    0.4537    0.2955 N   0  0  0  0  0  0  0  0  0  0  0  0
    2.5428    1.0230    0.3940 C   0  0  0  0  0  0  0  0  0  0  0  0
    5.5301   -5.1063   -3.6810 C   0  0  0  0  0  0  0  0  0  0  0  0
    4.7993   -3.3404   -3.7693 Si  0  0  0  0  0  0  0  0  0  0  0  0
    6.1589   -2.1520   -4.3828 C   0  0  0  0  0  0  0  0  0  0  0  0
    3.3138   -3.3328   -4.9640 C   0  0  0  0  0  0  0  0  0  0  0  0
    4.3136   -2.8431   -1.9815 C   0  0  0  0  0  0  0  0  0  0  0  0
    3.9755   -1.3748   -1.7431 C   0  0  0  0  0  0  0  0  0  0  0  0
    3.7602   -1.1163   -0.2415 C   0  0  0  0  0  0  0  0  0  0  0  0
    3.7688    0.3339    0.1282 C   0  0  0  0  0  0  0  0  0  0  0  0
    4.9619    1.0165    0.2529 C   0  0  0  0  0  0  0  0  0  0  0  0
    5.0134    2.3442    0.6476 C   0  0  0  0  0  0  0  0  0  0  0  0
    3.8301    3.0163    0.9386 C   0  0  0  0  0  0  0  0  0  0  0  0
    2.6209    2.3873    0.8112 C   0  0  0  0  0  0  0  0  0  0  0  0
    4.8033   -5.8133   -3.2920 H   0  0  0  0  0  0  0  0  0  0  0  0
    5.8277   -5.4542   -4.6657 H   0  0  0  0  0  0  0  0  0  0  0  0
    6.4065   -5.1522   -3.0413 H   0  0  0  0  0  0  0  0  0  0  0  0
    6.5070   -2.4276   -5.3732 H   0  0  0  0  0  0  0  0  0  0  0  0
    5.7948   -1.1307   -4.4403 H   0  0  0  0  0  0  0  0  0  0  0  0
    7.0156   -2.1623   -3.7155 H   0  0  0  0  0  0  0  0  0  0  0  0
    2.4127   -2.9839   -4.4723 H   0  0  0  0  0  0  0  0  0  0  0  0
    3.1119   -4.3282   -5.3476 H   0  0  0  0  0  0  0  0  0  0  0  0
    3.4900   -2.6873   -5.8186 H   0  0  0  0  0  0  0  0  0  0  0  0
    5.1573   -3.0947   -1.3367 H   0  0  0  0  0  0  0  0  0  0  0  0
    3.4734   -3.4507   -1.6417 H   0  0  0  0  0  0  0  0  0  0  0  0
    3.0708   -1.1022   -2.2910 H   0  0  0  0  0  0  0  0  0  0  0  0
    4.7893   -0.7420   -2.1030 H   0  0  0  0  0  0  0  0  0  0  0  0
    4.5703   -1.6059    0.3051 H   0  0  0  0  0  0  0  0  0  0  0  0
    2.8179   -1.5661    0.0727 H   0  0  0  0  0  0  0  0  0  0  0  0
    5.8803    0.4841    0.0515 H   0  0  0  0  0  0  0  0  0  0  0  0
    5.9598    2.8509    0.7433 H   0  0  0  0  0  0  0  0  0  0  0  0
    3.8666    4.0422    1.2711 H   0  0  0  0  0  0  0  0  0  0  0  0
    1.6934    2.8957    1.0198 H   0  0  0  0  0  0  0  0  0  0  0  0
  1  4  4  0  0  0  0
  3  4  4  0  0  0  0
  4  5  1  0  0  0  0
  5  6  1  0  0  0  0
  5  7  2  0  0  0  0
  7  8  1  0  0  0  0
  1  9  4  0  0  0  0
  7  9  1  0  0  0  0
  9 10  4  0  0  0  0
  2 11  4  0  0  0  0
 10 11  4  0  0  0  0
 11 12  1  0  0  0  0
 12 13  1  0  0  0  0
 12 14  2  0  0  0  0
 14 15  1  0  0  0  0
  2 16  4  0  0  0  0
 14 16  1  0  0  0  0
 10 17  1  0  0  0  0
 17 18  4  0  0  0  0
 18 19  4  0  0  0  0
 19 20  4  0  0  0  0
 20 21  1  0  0  0  0
 20 22  4  0  0  0  0
 17 23  4  0  0  0  0
 22 23  4  0  0  0  0
 16 26  4  0  0  0  0
 24 27  4  0  0  0  0
 26 27  4  0  0  0  0
 27 28  1  0  0  0  0
 28 29  1  0  0  0  0
 28 30  2  0  0  0  0
 30 31  1  0  0  0  0
 24 32  4  0  0  0  0
 30 32  1  0  0  0  0
 32 33  4  0  0  0  0
 25 34  4  0  0  0  0
 33 34  4  0  0  0  0
 34 35  1  0  0  0  0
 35 36  1  0  0  0  0
 35 37  2  0  0  0  0
 37 38  1  0  0  0  0
  3 39  4  0  0  0  0
 25 39  4  0  0  0  0
 37 39  1  0  0  0  0
 33 40  1  0  0  0  0
 40 41  4  0  0  0  0
 41 42  4  0  0  0  0
 42 43  4  0  0  0  0
 43 44  1  0  0  0  0
 43 45  4  0  0  0  0
 40 46  4  0  0  0  0
 45 46  4  0  0  0  0
  1 47  1  0  0  0  0
  2 47  1  0  0  0  0
 24 47  1  0  0  0  0
 25 47  1  0  0  0  0
 47 48  1  0  0  0  0
 26 49  1  0  0  0  0
 49 50  4  0  0  0  0
 49 51  4  0  0  0  0
 50 52  4  0  0  0  0
 50 53  1  0  0  0  0
 51 54  4  0  0  0  0
 51 55  1  0  0  0  0
 52 56  1  0  0  0  0
 52 57  4  0  0  0  0
 54 57  4  0  0  0  0
 53 58  4  0  0  0  0
 53 59  1  0  0  0  0
 54 60  1  0  0  0  0
 55 61  4  0  0  0  0
 55 62  1  0  0  0  0
 57 63  1  0  0  0  0
 58 64  2  0  0  0  0
 58 65  1  0  0  0  0
 61 66  2  0  0  0  0
 61 67  1  0  0  0  0
 65 68  1  0  0  0  0
 65 69  1  0  0  0  0
 65 70  1  0  0  0  0
 68 70  1  0  0  0  0
 67 71  1  0  0  0  0
 67 72  1  0  0  0  0
 67 73  1  0  0  0  0
 71 73  1  0  0  0  0
 68 74  1  0  0  0  0
 68 75  1  0  0  0  0
 70 76  1  0  0  0  0
 70 77  1  0  0  0  0
 71 78  1  0  0  0  0
 71 79  1  0  0  0  0
 73 80  1  0  0  0  0
 73 81  1  0  0  0  0
 77 82  1  0  0  0  0
 77 83  2  0  0  0  0
 81 84  1  0  0  0  0
 81 85  2  0  0  0  0
 82 86  1  0  0  0  0
 84 87  1  0  0  0  0
 86 88  1  0  0  0  0
 86 89  1  0  0  0  0
 86 90  1  0  0  0  0
 87 91  1  0  0  0  0
 87 92  1  0  0  0  0
 87 93  1  0  0  0  0
 88 94  1  0  0  0  0
 88 95  1  0  0  0  0
 88 96  1  0  0  0  0
 89 97  1  0  0  0  0
 89 98  1  0  0  0  0
 89 99  1  0  0  0  0
 91100  1  0  0  0  0
 91101  1  0  0  0  0
 91102  1  0  0  0  0
 92103  1  0  0  0  0
 92104  1  0  0  0  0
 92105  1  0  0  0  0
  3106  1  0  0  0  0
106107  4  0  0  0  0
106108  4  0  0  0  0
107109  4  0  0  0  0
107110  1  0  0  0  0
108111  4  0  0  0  0
108112  1  0  0  0  0
109113  1  0  0  0  0
109114  4  0  0  0  0
111114  4  0  0  0  0
110115  4  0  0  0  0
110116  1  0  0  0  0
111117  1  0  0  0  0
112118  4  0  0  0  0
112119  1  0  0  0  0
114120  1  0  0  0  0
115121  2  0  0  0  0
115122  1  0  0  0  0
118123  2  0  0  0  0
118124  1  0  0  0  0
122125  1  0  0  0  0
122126  1  0  0  0  0
122127  1  0  0  0  0
125127  1  0  0  0  0
124128  1  0  0  0  0
124129  1  0  0  0  0
124130  1  0  0  0  0
128130  1  0  0  0  0
125131  1  0  0  0  0
125132  1  0  0  0  0
127133  1  0  0  0  0
127134  1  0  0  0  0
128135  1  0  0  0  0
128136  1  0  0  0  0
130137  1  0  0  0  0
130138  1  0  0  0  0
134139  1  0  0  0  0
134140  2  0  0  0  0
138141  1  0  0  0  0
138142  2  0  0  0  0
139143  1  0  0  0  0
141144  1  0  0  0  0
143145  1  0  0  0  0
143146  1  0  0  0  0
143147  1  0  0  0  0
144148  1  0  0  0  0
144149  1  0  0  0  0
144150  1  0  0  0  0
145151  1  0  0  0  0
145152  1  0  0  0  0
145153  1  0  0  0  0
146154  1  0  0  0  0
146155  1  0  0  0  0
146156  1  0  0  0  0
148157  1  0  0  0  0
148158  1  0  0  0  0
148159  1  0  0  0  0
149160  1  0  0  0  0
149161  1  0  0  0  0
149162  1  0  0  0  0
 19163  1  0  0  0  0
 22164  1  0  0  0  0
 42165  1  0  0  0  0
 45166  1  0  0  0  0
 18167  1  0  0  0  0
 23168  1  0  0  0  0
 41169  1  0  0  0  0
 46170  1  0  0  0  0
167171  1  0  0  0  0
171172  4  0  0  0  0
171173  4  0  0  0  0
172174  4  0  0  0  0
172175  1  0  0  0  0
173176  4  0  0  0  0
173177  1  0  0  0  0
174178  4  0  0  0  0
176178  4  0  0  0  0
174179  1  0  0  0  0
176180  1  0  0  0  0
178181  1  0  0  0  0
168182  1  0  0  0  0
182183  4  0  0  0  0
182184  4  0  0  0  0
183185  4  0  0  0  0
183186  1  0  0  0  0
184187  4  0  0  0  0
184188  1  0  0  0  0
185189  4  0  0  0  0
187189  4  0  0  0  0
185190  1  0  0  0  0
187191  1  0  0  0  0
189192  1  0  0  0  0
169193  1  0  0  0  0
193194  4  0  0  0  0
193195  4  0  0  0  0
194196  4  0  0  0  0
194197  1  0  0  0  0
195198  4  0  0  0  0
195199  1  0  0  0  0
196200  4  0  0  0  0
198200  4  0  0  0  0
196201  1  0  0  0  0
198202  1  0  0  0  0
200203  1  0  0  0  0
170204  1  0  0  0  0
204205  4  0  0  0  0
204206  4  0  0  0  0
205207  4  0  0  0  0
205208  1  0  0  0  0
206209  4  0  0  0  0
206210  1  0  0  0  0
207211  4  0  0  0  0
209211  4  0  0  0  0
207212  1  0  0  0  0
209213  1  0  0  0  0
211214  1  0  0  0  0
 47215  2  0  0  0  0
215216  4  0  0  0  0
217218  1  0  0  0  0
218219  1  0  0  0  0
218220  1  0  0  0  0
218221  1  0  0  0  0
221222  1  0  0  0  0
222223  1  0  0  0  0
216224  1  0  0  0  0
223224  1  0  0  0  0
224225  4  0  0  0  0
225226  4  0  0  0  0
226227  4  0  0  0  0
216228  1  0  0  0  0
227228  2  0  0  0  0
217229  1  0  0  0  0
217230  1  0  0  0  0
217231  1  0  0  0  0
219232  1  0  0  0  0
219233  1  0  0  0  0
219234  1  0  0  0  0
220235  1  0  0  0  0
220236  1  0  0  0  0
220237  1  0  0  0  0
221238  1  0  0  0  0
221239  1  0  0  0  0
222240  1  0  0  0  0
222241  1  0  0  0  0
223242  1  0  0  0  0
223243  1  0  0  0  0
225244  1  0  0  0  0
226245  1  0  0  0  0
227246  1  0  0  0  0
228247  1  0  0  0  0
M  END
