
     RDKit          3D

 26 27  0  0  0  0  0  0  0  0999 V2000
   -0.9436   -1.4228    1.5517 N   0  0  0  0  0  1  0  0  0  0  0  0
   -1.6341   -0.3997    0.8388 C   0  0  0  0  0  0  0  0  0  0  0  0
   -2.2360    0.6472    1.5470 C   0  0  0  0  0  0  0  0  0  0  0  0
   -2.9262    1.6522    0.8632 C   0  0  0  0  0  0  0  0  0  0  0  0
   -3.0211    1.6119   -0.5304 C   0  0  0  0  0  0  0  0  0  0  0  0
   -2.4211    0.5697   -1.2431 C   0  0  0  0  0  0  0  0  0  0  0  0
   -1.7160   -0.4335   -0.5650 C   0  0  0  0  0  0  0  0  0  0  0  0
   -0.9388   -1.7566   -1.5055 S   0  0  0  0  0  0  0  0  0  0  0  0
    0.5770   -0.8134   -1.9000 C   0  0  0  0  0  0  0  0  0  0  0  0
    1.4244   -0.6121   -0.6741 C   0  0  0  0  0  0  0  0  0  0  0  0
    1.4638    0.6374   -0.0320 C   0  0  0  0  0  0  0  0  0  0  0  0
    2.2246    0.8087    1.1285 C   0  0  0  0  0  0  0  0  0  0  0  0
    2.9499   -0.2635    1.6552 C   0  0  0  0  0  0  0  0  0  0  0  0
    2.9143   -1.5096    1.0232 C   0  0  0  0  0  0  0  0  0  0  0  0
    2.1533   -1.6858   -0.1365 C   0  0  0  0  0  0  0  0  0  0  0  0
   -2.1709    0.6818    2.6273 H   0  0  0  0  0  0  0  0  0  0  0  0
   -3.3905    2.4601    1.4136 H   0  0  0  0  0  0  0  0  0  0  0  0
   -3.5589    2.3887   -1.0585 H   0  0  0  0  0  0  0  0  0  0  0  0
   -2.4963    0.5479   -2.3229 H   0  0  0  0  0  0  0  0  0  0  0  0
    1.1570   -1.3851   -2.6551 H   0  0  0  0  0  0  0  0  0  0  0  0
    0.3055    0.1585   -2.3658 H   0  0  0  0  0  0  0  0  0  0  0  0
    0.8976    1.4741   -0.4222 H   0  0  0  0  0  0  0  0  0  0  0  0
    2.2489    1.7718    1.6215 H   0  0  0  0  0  0  0  0  0  0  0  0
    3.5373   -0.1295    2.5543 H   0  0  0  0  0  0  0  0  0  0  0  0
    3.4737   -2.3401    1.4341 H   0  0  0  0  0  0  0  0  0  0  0  0
    2.1263   -2.6583   -0.6125 H   0  0  0  0  0  0  0  0  0  0  0  0
  1  2  1  0
  2  3  2  0
  3  4  1  0
  4  5  2  0
  5  6  1  0
  6  7  2  0
  7  8  1  0
  8  9  1  0
  9 10  1  0
 10 11  2  0
 11 12  1  0
 12 13  2  0
 13 14  1  0
 14 15  2  0
  7  2  1  0
 15 10  1  0
  3 16  1  0
  4 17  1  0
  5 18  1  0
  6 19  1  0
  9 20  1  0
  9 21  1  0
 11 22  1  0
 12 23  1  0
 13 24  1  0
 14 25  1  0
 15 26  1  0
M  RAD  1   1   3
M  END
$$$$
