
     RDKit          3D

 26 27  0  0  0  0  0  0  0  0999 V2000
   -0.7279    0.1238   -2.1255 N   0  0  0  0  0  1  0  0  0  0  0  0
   -1.5618    0.1340   -0.9696 C   0  0  0  0  0  0  0  0  0  0  0  0
   -2.3405    1.2636   -0.6918 C   0  0  0  0  0  0  0  0  0  0  0  0
   -3.1717    1.2847    0.4319 C   0  0  0  0  0  0  0  0  0  0  0  0
   -3.2308    0.1752    1.2793 C   0  0  0  0  0  0  0  0  0  0  0  0
   -2.4545   -0.9552    1.0079 C   0  0  0  0  0  0  0  0  0  0  0  0
   -1.6088   -0.9779   -0.1092 C   0  0  0  0  0  0  0  0  0  0  0  0
   -0.6073   -2.4386   -0.4293 S   0  0  0  0  0  0  0  0  0  0  0  0
    0.7418   -1.9700    0.7124 C   0  0  0  0  0  0  0  0  0  0  0  0
    1.5201   -0.7988    0.1796 C   0  0  0  0  0  0  0  0  0  0  0  0
    1.3422    0.4836    0.7264 C   0  0  0  0  0  0  0  0  0  0  0  0
    2.0414    1.5752    0.2027 C   0  0  0  0  0  0  0  0  0  0  0  0
    2.9213    1.3952   -0.8680 C   0  0  0  0  0  0  0  0  0  0  0  0
    3.1023    0.1232   -1.4182 C   0  0  0  0  0  0  0  0  0  0  0  0
    2.4036   -0.9710   -0.8988 C   0  0  0  0  0  0  0  0  0  0  0  0
   -2.3036    2.1247   -1.3472 H   0  0  0  0  0  0  0  0  0  0  0  0
   -3.7726    2.1596    0.6438 H   0  0  0  0  0  0  0  0  0  0  0  0
   -3.8774    0.1914    2.1471 H   0  0  0  0  0  0  0  0  0  0  0  0
   -2.5034   -1.8091    1.6715 H   0  0  0  0  0  0  0  0  0  0  0  0
    0.3246   -1.7517    1.7192 H   0  0  0  0  0  0  0  0  0  0  0  0
    1.4223   -2.8404    0.8241 H   0  0  0  0  0  0  0  0  0  0  0  0
    0.6549    0.6400    1.5487 H   0  0  0  0  0  0  0  0  0  0  0  0
    1.8982    2.5615    0.6247 H   0  0  0  0  0  0  0  0  0  0  0  0
    3.4608    2.2416   -1.2730 H   0  0  0  0  0  0  0  0  0  0  0  0
    3.7814   -0.0143   -2.2496 H   0  0  0  0  0  0  0  0  0  0  0  0
    2.5452   -1.9503   -1.3391 H   0  0  0  0  0  0  0  0  0  0  0  0
  1  2  1  0
  2  3  2  0
  3  4  1  0
  4  5  2  0
  5  6  1  0
  6  7  2  0
  7  8  1  0
  8  9  1  0
  9 10  1  0
 10 11  2  0
 11 12  1  0
 12 13  2  0
 13 14  1  0
 14 15  2  0
  7  2  1  0
 15 10  1  0
  3 16  1  0
  4 17  1  0
  5 18  1  0
  6 19  1  0
  9 20  1  0
  9 21  1  0
 11 22  1  0
 12 23  1  0
 13 24  1  0
 14 25  1  0
 15 26  1  0
M  RAD  1   1   3
M  END
$$$$
