
     RDKit          3D

 26 27  0  0  0  0  0  0  0  0999 V2000
   -0.5921    1.8255   -1.1324 N   0  0  0  0  0  1  0  0  0  0  0  0
   -1.4943    0.9633   -0.4437 C   0  0  0  0  0  0  0  0  0  0  0  0
   -2.2510    1.4667    0.6211 C   0  0  0  0  0  0  0  0  0  0  0  0
   -3.1482    0.6367    1.2993 C   0  0  0  0  0  0  0  0  0  0  0  0
   -3.2954   -0.6981    0.9130 C   0  0  0  0  0  0  0  0  0  0  0  0
   -2.5416   -1.2069   -0.1486 C   0  0  0  0  0  0  0  0  0  0  0  0
   -1.6304   -0.3841   -0.8241 C   0  0  0  0  0  0  0  0  0  0  0  0
   -0.6598   -1.0660   -2.1776 S   0  0  0  0  0  0  0  0  0  0  0  0
    0.6317   -1.7938   -1.1074 C   0  0  0  0  0  0  0  0  0  0  0  0
    1.4792   -0.7236   -0.4767 C   0  0  0  0  0  0  0  0  0  0  0  0
    1.3105   -0.3860    0.8771 C   0  0  0  0  0  0  0  0  0  0  0  0
    2.0759    0.6350    1.4485 C   0  0  0  0  0  0  0  0  0  0  0  0
    3.0132    1.3247    0.6746 C   0  0  0  0  0  0  0  0  0  0  0  0
    3.1856    0.9957   -0.6727 C   0  0  0  0  0  0  0  0  0  0  0  0
    2.4208   -0.0234   -1.2488 C   0  0  0  0  0  0  0  0  0  0  0  0
   -2.1458    2.5015    0.9222 H   0  0  0  0  0  0  0  0  0  0  0  0
   -3.7318    1.0290    2.1220 H   0  0  0  0  0  0  0  0  0  0  0  0
   -3.9930   -1.3388    1.4367 H   0  0  0  0  0  0  0  0  0  0  0  0
   -2.6590   -2.2431   -0.4392 H   0  0  0  0  0  0  0  0  0  0  0  0
    1.2750   -2.4481   -1.7329 H   0  0  0  0  0  0  0  0  0  0  0  0
    0.1611   -2.4414   -0.3363 H   0  0  0  0  0  0  0  0  0  0  0  0
    0.5797   -0.9040    1.4858 H   0  0  0  0  0  0  0  0  0  0  0  0
    1.9396    0.8940    2.4905 H   0  0  0  0  0  0  0  0  0  0  0  0
    3.6040    2.1156    1.1183 H   0  0  0  0  0  0  0  0  0  0  0  0
    3.9093    1.5329   -1.2719 H   0  0  0  0  0  0  0  0  0  0  0  0
    2.5569   -0.2635   -2.2961 H   0  0  0  0  0  0  0  0  0  0  0  0
  1  2  1  0
  2  3  2  0
  3  4  1  0
  4  5  2  0
  5  6  1  0
  6  7  2  0
  7  8  1  0
  8  9  1  0
  9 10  1  0
 10 11  2  0
 11 12  1  0
 12 13  2  0
 13 14  1  0
 14 15  2  0
  7  2  1  0
 15 10  1  0
  3 16  1  0
  4 17  1  0
  5 18  1  0
  6 19  1  0
  9 20  1  0
  9 21  1  0
 11 22  1  0
 12 23  1  0
 13 24  1  0
 14 25  1  0
 15 26  1  0
M  RAD  1   1   3
M  END
$$$$
