
     RDKit          3D

 26 27  0  0  0  0  0  0  0  0999 V2000
    0.3247    0.5378    1.9206 N   0  0  0  0  0  1  0  0  0  0  0  0
    1.3586    0.3152    0.9650 C   0  0  0  0  0  0  0  0  0  0  0  0
    2.2225    1.3639    0.6280 C   0  0  0  0  0  0  0  0  0  0  0  0
    3.2482    1.1584   -0.2992 C   0  0  0  0  0  0  0  0  0  0  0  0
    3.4168   -0.0970   -0.8895 C   0  0  0  0  0  0  0  0  0  0  0  0
    2.5564   -1.1475   -0.5580 C   0  0  0  0  0  0  0  0  0  0  0  0
    1.5176   -0.9449    0.3604 C   0  0  0  0  0  0  0  0  0  0  0  0
    0.4130   -2.3087    0.7596 S   0  0  0  0  0  0  0  0  0  0  0  0
   -0.6793   -2.0683   -0.6868 C   0  0  0  0  0  0  0  0  0  0  0  0
   -1.4927   -0.8110   -0.5484 C   0  0  0  0  0  0  0  0  0  0  0  0
   -2.5677   -0.7625    0.3543 C   0  0  0  0  0  0  0  0  0  0  0  0
   -3.3038    0.4162    0.5098 C   0  0  0  0  0  0  0  0  0  0  0  0
   -2.9699    1.5536   -0.2307 C   0  0  0  0  0  0  0  0  0  0  0  0
   -1.8995    1.5142   -1.1283 C   0  0  0  0  0  0  0  0  0  0  0  0
   -1.1621    0.3372   -1.2884 C   0  0  0  0  0  0  0  0  0  0  0  0
    2.1010    2.3377    1.0855 H   0  0  0  0  0  0  0  0  0  0  0  0
    3.9146    1.9712   -0.5575 H   0  0  0  0  0  0  0  0  0  0  0  0
    4.2135   -0.2557   -1.6046 H   0  0  0  0  0  0  0  0  0  0  0  0
    2.6915   -2.1160   -1.0226 H   0  0  0  0  0  0  0  0  0  0  0  0
   -1.3634   -2.9402   -0.7560 H   0  0  0  0  0  0  0  0  0  0  0  0
   -0.0734   -2.0552   -1.6185 H   0  0  0  0  0  0  0  0  0  0  0  0
   -2.8302   -1.6347    0.9401 H   0  0  0  0  0  0  0  0  0  0  0  0
   -4.1308    0.4490    1.2073 H   0  0  0  0  0  0  0  0  0  0  0  0
   -3.5390    2.4659   -0.1071 H   0  0  0  0  0  0  0  0  0  0  0  0
   -1.6387    2.3969   -1.6976 H   0  0  0  0  0  0  0  0  0  0  0  0
   -0.3279    0.3247   -1.9790 H   0  0  0  0  0  0  0  0  0  0  0  0
  1  2  1  0
  2  3  2  0
  3  4  1  0
  4  5  2  0
  5  6  1  0
  6  7  2  0
  7  8  1  0
  8  9  1  0
  9 10  1  0
 10 11  2  0
 11 12  1  0
 12 13  2  0
 13 14  1  0
 14 15  2  0
  7  2  1  0
 15 10  1  0
  3 16  1  0
  4 17  1  0
  5 18  1  0
  6 19  1  0
  9 20  1  0
  9 21  1  0
 11 22  1  0
 12 23  1  0
 13 24  1  0
 14 25  1  0
 15 26  1  0
M  RAD  1   1   3
M  END
$$$$
