
     RDKit          3D

 26 27  0  0  0  0  0  0  0  0999 V2000
    2.0797    2.0363    1.4567 N   0  0  0  0  0  1  0  0  0  0  0  0
    2.7138    1.0082    0.7002 C   0  0  0  0  0  0  0  0  0  0  0  0
    3.9972    1.2233    0.1832 C   0  0  0  0  0  0  0  0  0  0  0  0
    4.6319    0.2234   -0.5597 C   0  0  0  0  0  0  0  0  0  0  0  0
    3.9867   -0.9952   -0.7875 C   0  0  0  0  0  0  0  0  0  0  0  0
    2.7054   -1.2156   -0.2737 C   0  0  0  0  0  0  0  0  0  0  0  0
    2.0621   -0.2159    0.4680 C   0  0  0  0  0  0  0  0  0  0  0  0
    0.4158   -0.5241    1.1197 S   0  0  0  0  0  0  0  0  0  0  0  0
   -0.4253    0.1144   -0.3656 C   0  0  0  0  0  0  0  0  0  0  0  0
   -1.9113    0.0274   -0.1747 C   0  0  0  0  0  0  0  0  0  0  0  0
   -2.6062   -1.1369   -0.5427 C   0  0  0  0  0  0  0  0  0  0  0  0
   -3.9859   -1.2289   -0.3334 C   0  0  0  0  0  0  0  0  0  0  0  0
   -4.6781   -0.1655    0.2528 C   0  0  0  0  0  0  0  0  0  0  0  0
   -3.9910    0.9901    0.6348 C   0  0  0  0  0  0  0  0  0  0  0  0
   -2.6113    1.0862    0.4274 C   0  0  0  0  0  0  0  0  0  0  0  0
    4.5035    2.1646    0.3570 H   0  0  0  0  0  0  0  0  0  0  0  0
    5.6239    0.3927   -0.9580 H   0  0  0  0  0  0  0  0  0  0  0  0
    4.4794   -1.7689   -1.3620 H   0  0  0  0  0  0  0  0  0  0  0  0
    2.2119   -2.1620   -0.4552 H   0  0  0  0  0  0  0  0  0  0  0  0
   -0.1245    1.1700   -0.5414 H   0  0  0  0  0  0  0  0  0  0  0  0
   -0.1181   -0.4806   -1.2529 H   0  0  0  0  0  0  0  0  0  0  0  0
   -2.0801   -1.9716   -0.9894 H   0  0  0  0  0  0  0  0  0  0  0  0
   -4.5179   -2.1260   -0.6226 H   0  0  0  0  0  0  0  0  0  0  0  0
   -5.7456   -0.2389    0.4153 H   0  0  0  0  0  0  0  0  0  0  0  0
   -4.5269    1.8102    1.0950 H   0  0  0  0  0  0  0  0  0  0  0  0
   -2.0891    1.9834    0.7365 H   0  0  0  0  0  0  0  0  0  0  0  0
  1  2  1  0
  2  3  2  0
  3  4  1  0
  4  5  2  0
  5  6  1  0
  6  7  2  0
  7  8  1  0
  8  9  1  0
  9 10  1  0
 10 11  2  0
 11 12  1  0
 12 13  2  0
 13 14  1  0
 14 15  2  0
  7  2  1  0
 15 10  1  0
  3 16  1  0
  4 17  1  0
  5 18  1  0
  6 19  1  0
  9 20  1  0
  9 21  1  0
 11 22  1  0
 12 23  1  0
 13 24  1  0
 14 25  1  0
 15 26  1  0
M  RAD  1   1   3
M  END
$$$$
