
     RDKit          3D

 26 27  0  0  0  0  0  0  0  0999 V2000
   -2.1354    0.2854   -2.3984 N   0  0  0  0  0  1  0  0  0  0  0  0
   -2.7377    0.2451   -1.1072 C   0  0  0  0  0  0  0  0  0  0  0  0
   -4.0480   -0.2294   -0.9714 C   0  0  0  0  0  0  0  0  0  0  0  0
   -4.6519   -0.2735    0.2888 C   0  0  0  0  0  0  0  0  0  0  0  0
   -3.9488    0.1575    1.4171 C   0  0  0  0  0  0  0  0  0  0  0  0
   -2.6403    0.6322    1.2874 C   0  0  0  0  0  0  0  0  0  0  0  0
   -2.0279    0.6750    0.0278 C   0  0  0  0  0  0  0  0  0  0  0  0
   -0.3457    1.2915   -0.1132 S   0  0  0  0  0  0  0  0  0  0  0  0
    0.4073   -0.3493    0.1356 C   0  0  0  0  0  0  0  0  0  0  0  0
    1.9016   -0.2296    0.0641 C   0  0  0  0  0  0  0  0  0  0  0  0
    2.5627   -0.3397   -1.1706 C   0  0  0  0  0  0  0  0  0  0  0  0
    3.9519   -0.1948   -1.2406 C   0  0  0  0  0  0  0  0  0  0  0  0
    4.6878    0.0707   -0.0824 C   0  0  0  0  0  0  0  0  0  0  0  0
    4.0353    0.1960    1.1472 C   0  0  0  0  0  0  0  0  0  0  0  0
    2.6463    0.0519    1.2217 C   0  0  0  0  0  0  0  0  0  0  0  0
   -4.5990   -0.5636   -1.8415 H   0  0  0  0  0  0  0  0  0  0  0  0
   -5.6649   -0.6408    0.3906 H   0  0  0  0  0  0  0  0  0  0  0  0
   -4.4177    0.1237    2.3920 H   0  0  0  0  0  0  0  0  0  0  0  0
   -2.1020    0.9635    2.1664 H   0  0  0  0  0  0  0  0  0  0  0  0
    0.1029   -0.7531    1.1256 H   0  0  0  0  0  0  0  0  0  0  0  0
    0.0430   -1.0508   -0.6460 H   0  0  0  0  0  0  0  0  0  0  0  0
    2.0029   -0.5359   -2.0768 H   0  0  0  0  0  0  0  0  0  0  0  0
    4.4575   -0.2849   -2.1934 H   0  0  0  0  0  0  0  0  0  0  0  0
    5.7628    0.1838   -0.1385 H   0  0  0  0  0  0  0  0  0  0  0  0
    4.6055    0.4084    2.0423 H   0  0  0  0  0  0  0  0  0  0  0  0
    2.1518    0.1606    2.1791 H   0  0  0  0  0  0  0  0  0  0  0  0
  1  2  1  0
  2  3  2  0
  3  4  1  0
  4  5  2  0
  5  6  1  0
  6  7  2  0
  7  8  1  0
  8  9  1  0
  9 10  1  0
 10 11  2  0
 11 12  1  0
 12 13  2  0
 13 14  1  0
 14 15  2  0
  7  2  1  0
 15 10  1  0
  3 16  1  0
  4 17  1  0
  5 18  1  0
  6 19  1  0
  9 20  1  0
  9 21  1  0
 11 22  1  0
 12 23  1  0
 13 24  1  0
 14 25  1  0
 15 26  1  0
M  RAD  1   1   3
M  END
$$$$
