
     RDKit          3D

 26 27  0  0  0  0  0  0  0  0999 V2000
    0.2701    0.7226    2.1387 N   0  0  0  0  0  1  0  0  0  0  0  0
    1.3276    0.3914    1.2421 C   0  0  0  0  0  0  0  0  0  0  0  0
    2.2284    1.3855    0.8422 C   0  0  0  0  0  0  0  0  0  0  0  0
    3.2772    1.0741   -0.0279 C   0  0  0  0  0  0  0  0  0  0  0  0
    3.4319   -0.2329   -0.4977 C   0  0  0  0  0  0  0  0  0  0  0  0
    2.5348   -1.2294   -0.1030 C   0  0  0  0  0  0  0  0  0  0  0  0
    1.4731   -0.9214    0.7581 C   0  0  0  0  0  0  0  0  0  0  0  0
    0.3218   -2.2181    1.2400 S   0  0  0  0  0  0  0  0  0  0  0  0
   -0.7178   -2.0841   -0.2581 C   0  0  0  0  0  0  0  0  0  0  0  0
   -1.5026   -0.8013   -0.2599 C   0  0  0  0  0  0  0  0  0  0  0  0
   -1.1194    0.2678   -1.0878 C   0  0  0  0  0  0  0  0  0  0  0  0
   -1.8310    1.4709   -1.0584 C   0  0  0  0  0  0  0  0  0  0  0  0
   -2.9278    1.6154   -0.2044 C   0  0  0  0  0  0  0  0  0  0  0  0
   -3.3140    0.5572    0.6230 C   0  0  0  0  0  0  0  0  0  0  0  0
   -2.6040   -0.6472    0.5981 C   0  0  0  0  0  0  0  0  0  0  0  0
    2.1176    2.3990    1.2067 H   0  0  0  0  0  0  0  0  0  0  0  0
    3.9721    1.8449   -0.3351 H   0  0  0  0  0  0  0  0  0  0  0  0
    4.2465   -0.4734   -1.1686 H   0  0  0  0  0  0  0  0  0  0  0  0
    2.6595   -2.2386   -0.4745 H   0  0  0  0  0  0  0  0  0  0  0  0
   -1.4216   -2.9429   -0.2722 H   0  0  0  0  0  0  0  0  0  0  0  0
   -0.0827   -2.1688   -1.1663 H   0  0  0  0  0  0  0  0  0  0  0  0
   -0.2645    0.1742   -1.7461 H   0  0  0  0  0  0  0  0  0  0  0  0
   -1.5298    2.2927   -1.6950 H   0  0  0  0  0  0  0  0  0  0  0  0
   -3.4768    2.5478   -0.1820 H   0  0  0  0  0  0  0  0  0  0  0  0
   -4.1614    0.6715    1.2864 H   0  0  0  0  0  0  0  0  0  0  0  0
   -2.9071   -1.4570    1.2503 H   0  0  0  0  0  0  0  0  0  0  0  0
  1  2  1  0
  2  3  2  0
  3  4  1  0
  4  5  2  0
  5  6  1  0
  6  7  2  0
  7  8  1  0
  8  9  1  0
  9 10  1  0
 10 11  2  0
 11 12  1  0
 12 13  2  0
 13 14  1  0
 14 15  2  0
  7  2  1  0
 15 10  1  0
  3 16  1  0
  4 17  1  0
  5 18  1  0
  6 19  1  0
  9 20  1  0
  9 21  1  0
 11 22  1  0
 12 23  1  0
 13 24  1  0
 14 25  1  0
 15 26  1  0
M  RAD  1   1   3
M  END
$$$$
