
     RDKit          3D

 26 27  0  0  0  0  0  0  0  0999 V2000
   -1.9847   -2.4086    1.0051 N   0  0  0  0  0  1  0  0  0  0  0  0
   -2.6649   -1.2356    0.5660 C   0  0  0  0  0  0  0  0  0  0  0  0
   -3.9659   -1.3410    0.0592 C   0  0  0  0  0  0  0  0  0  0  0  0
   -4.6456   -0.1987   -0.3741 C   0  0  0  0  0  0  0  0  0  0  0  0
   -4.0279    1.0528   -0.3014 C   0  0  0  0  0  0  0  0  0  0  0  0
   -2.7292    1.1641    0.2038 C   0  0  0  0  0  0  0  0  0  0  0  0
   -2.0410    0.0225    0.6357 C   0  0  0  0  0  0  0  0  0  0  0  0
   -0.3730    0.1919    1.2831 S   0  0  0  0  0  0  0  0  0  0  0  0
    0.4132   -0.0190   -0.3475 C   0  0  0  0  0  0  0  0  0  0  0  0
    1.9046    0.0524   -0.1962 C   0  0  0  0  0  0  0  0  0  0  0  0
    2.5666    1.2891   -0.2743 C   0  0  0  0  0  0  0  0  0  0  0  0
    3.9525    1.3578   -0.1000 C   0  0  0  0  0  0  0  0  0  0  0  0
    4.6840    0.1963    0.1631 C   0  0  0  0  0  0  0  0  0  0  0  0
    4.0303   -1.0355    0.2567 C   0  0  0  0  0  0  0  0  0  0  0  0
    2.6446   -1.1088    0.0831 C   0  0  0  0  0  0  0  0  0  0  0  0
   -4.4510   -2.3074    0.0012 H   0  0  0  0  0  0  0  0  0  0  0  0
   -5.6512   -0.2835   -0.7654 H   0  0  0  0  0  0  0  0  0  0  0  0
   -4.5555    1.9365   -0.6363 H   0  0  0  0  0  0  0  0  0  0  0  0
   -2.2573    2.1371    0.2561 H   0  0  0  0  0  0  0  0  0  0  0  0
    0.1202   -1.0001   -0.7802 H   0  0  0  0  0  0  0  0  0  0  0  0
    0.0601    0.7778   -1.0376 H   0  0  0  0  0  0  0  0  0  0  0  0
    2.0101    2.1977   -0.4684 H   0  0  0  0  0  0  0  0  0  0  0  0
    4.4588    2.3122   -0.1655 H   0  0  0  0  0  0  0  0  0  0  0  0
    5.7564    0.2514    0.2990 H   0  0  0  0  0  0  0  0  0  0  0  0
    4.5969   -1.9333    0.4673 H   0  0  0  0  0  0  0  0  0  0  0  0
    2.1488   -2.0680    0.1674 H   0  0  0  0  0  0  0  0  0  0  0  0
  1  2  1  0
  2  3  2  0
  3  4  1  0
  4  5  2  0
  5  6  1  0
  6  7  2  0
  7  8  1  0
  8  9  1  0
  9 10  1  0
 10 11  2  0
 11 12  1  0
 12 13  2  0
 13 14  1  0
 14 15  2  0
  7  2  1  0
 15 10  1  0
  3 16  1  0
  4 17  1  0
  5 18  1  0
  6 19  1  0
  9 20  1  0
  9 21  1  0
 11 22  1  0
 12 23  1  0
 13 24  1  0
 14 25  1  0
 15 26  1  0
M  RAD  1   1   3
M  END
$$$$
