
     RDKit          3D

 26 27  0  0  0  0  0  0  0  0999 V2000
   -0.1315    0.0832   -2.1650 N   0  0  0  0  0  1  0  0  0  0  0  0
   -1.2374    0.1933   -1.2725 C   0  0  0  0  0  0  0  0  0  0  0  0
   -1.9783    1.3805   -1.2370 C   0  0  0  0  0  0  0  0  0  0  0  0
   -3.0724    1.5001   -0.3751 C   0  0  0  0  0  0  0  0  0  0  0  0
   -3.4323    0.4320    0.4509 C   0  0  0  0  0  0  0  0  0  0  0  0
   -2.6955   -0.7555    0.4208 C   0  0  0  0  0  0  0  0  0  0  0  0
   -1.5894   -0.8773   -0.4308 C   0  0  0  0  0  0  0  0  0  0  0  0
   -0.6468   -2.4105   -0.4406 S   0  0  0  0  0  0  0  0  0  0  0  0
    0.3841   -1.9825    1.0075 C   0  0  0  0  0  0  0  0  0  0  0  0
    1.3575   -0.8858    0.6744 C   0  0  0  0  0  0  0  0  0  0  0  0
    2.4790   -1.1575   -0.1265 C   0  0  0  0  0  0  0  0  0  0  0  0
    3.3668   -0.1319   -0.4661 C   0  0  0  0  0  0  0  0  0  0  0  0
    3.1394    1.1703   -0.0125 C   0  0  0  0  0  0  0  0  0  0  0  0
    2.0239    1.4493    0.7818 C   0  0  0  0  0  0  0  0  0  0  0  0
    1.1347    0.4266    1.1254 C   0  0  0  0  0  0  0  0  0  0  0  0
   -1.7082    2.2102   -1.8782 H   0  0  0  0  0  0  0  0  0  0  0  0
   -3.6432    2.4193   -0.3501 H   0  0  0  0  0  0  0  0  0  0  0  0
   -4.2818    0.5246    1.1152 H   0  0  0  0  0  0  0  0  0  0  0  0
   -2.9788   -1.5769    1.0666 H   0  0  0  0  0  0  0  0  0  0  0  0
    0.9466   -2.8891    1.3154 H   0  0  0  0  0  0  0  0  0  0  0  0
   -0.2667   -1.6974    1.8622 H   0  0  0  0  0  0  0  0  0  0  0  0
    2.6607   -2.1609   -0.4912 H   0  0  0  0  0  0  0  0  0  0  0  0
    4.2291   -0.3461   -1.0841 H   0  0  0  0  0  0  0  0  0  0  0  0
    3.8261    1.9635   -0.2785 H   0  0  0  0  0  0  0  0  0  0  0  0
    1.8461    2.4591    1.1284 H   0  0  0  0  0  0  0  0  0  0  0  0
    0.2683    0.6597    1.7319 H   0  0  0  0  0  0  0  0  0  0  0  0
  1  2  1  0
  2  3  2  0
  3  4  1  0
  4  5  2  0
  5  6  1  0
  6  7  2  0
  7  8  1  0
  8  9  1  0
  9 10  1  0
 10 11  2  0
 11 12  1  0
 12 13  2  0
 13 14  1  0
 14 15  2  0
  7  2  1  0
 15 10  1  0
  3 16  1  0
  4 17  1  0
  5 18  1  0
  6 19  1  0
  9 20  1  0
  9 21  1  0
 11 22  1  0
 12 23  1  0
 13 24  1  0
 14 25  1  0
 15 26  1  0
M  RAD  1   1   3
M  END
$$$$
