
     RDKit          3D

 26 27  0  0  0  0  0  0  0  0999 V2000
   -2.3421    1.7486   -1.5784 N   0  0  0  0  0  1  0  0  0  0  0  0
   -2.8339    0.7094   -0.7361 C   0  0  0  0  0  0  0  0  0  0  0  0
   -4.1028    0.8328   -0.1568 C   0  0  0  0  0  0  0  0  0  0  0  0
   -4.5986   -0.1792    0.6706 C   0  0  0  0  0  0  0  0  0  0  0  0
   -3.8286   -1.3183    0.9210 C   0  0  0  0  0  0  0  0  0  0  0  0
   -2.5612   -1.4469    0.3454 C   0  0  0  0  0  0  0  0  0  0  0  0
   -2.0568   -0.4343   -0.4814 C   0  0  0  0  0  0  0  0  0  0  0  0
   -0.4255   -0.6241   -1.2114 S   0  0  0  0  0  0  0  0  0  0  0  0
    0.4284    0.1705    0.1890 C   0  0  0  0  0  0  0  0  0  0  0  0
    1.9037    0.2110   -0.0832 C   0  0  0  0  0  0  0  0  0  0  0  0
    2.7251   -0.8620    0.3010 C   0  0  0  0  0  0  0  0  0  0  0  0
    4.0942   -0.8372    0.0169 C   0  0  0  0  0  0  0  0  0  0  0  0
    4.6496    0.2519   -0.6604 C   0  0  0  0  0  0  0  0  0  0  0  0
    3.8361    1.3163   -1.0587 C   0  0  0  0  0  0  0  0  0  0  0  0
    2.4665    1.2956   -0.7766 C   0  0  0  0  0  0  0  0  0  0  0  0
   -4.7052    1.7121   -0.3476 H   0  0  0  0  0  0  0  0  0  0  0  0
   -5.5797   -0.0808    1.1169 H   0  0  0  0  0  0  0  0  0  0  0  0
   -4.2139   -2.1015    1.5610 H   0  0  0  0  0  0  0  0  0  0  0  0
   -1.9705   -2.3321    0.5448 H   0  0  0  0  0  0  0  0  0  0  0  0
    0.2270   -0.4006    1.1212 H   0  0  0  0  0  0  0  0  0  0  0  0
    0.0379    1.2018    0.3291 H   0  0  0  0  0  0  0  0  0  0  0  0
    2.3055   -1.7161    0.8182 H   0  0  0  0  0  0  0  0  0  0  0  0
    4.7240   -1.6641    0.3188 H   0  0  0  0  0  0  0  0  0  0  0  0
    5.7092    0.2689   -0.8807 H   0  0  0  0  0  0  0  0  0  0  0  0
    4.2661    2.1560   -1.5892 H   0  0  0  0  0  0  0  0  0  0  0  0
    1.8454    2.1223   -1.0989 H   0  0  0  0  0  0  0  0  0  0  0  0
  1  2  1  0
  2  3  2  0
  3  4  1  0
  4  5  2  0
  5  6  1  0
  6  7  2  0
  7  8  1  0
  8  9  1  0
  9 10  1  0
 10 11  2  0
 11 12  1  0
 12 13  2  0
 13 14  1  0
 14 15  2  0
  7  2  1  0
 15 10  1  0
  3 16  1  0
  4 17  1  0
  5 18  1  0
  6 19  1  0
  9 20  1  0
  9 21  1  0
 11 22  1  0
 12 23  1  0
 13 24  1  0
 14 25  1  0
 15 26  1  0
M  RAD  1   1   3
M  END
$$$$
