
     RDKit          3D

 26 27  0  0  0  0  0  0  0  0999 V2000
   -1.2373   -1.8757   -0.1173 N   0  0  0  0  0  1  0  0  0  0  0  0
   -1.7518   -0.5643    0.1000 C   0  0  0  0  0  0  0  0  0  0  0  0
   -2.4045   -0.2709    1.3032 C   0  0  0  0  0  0  0  0  0  0  0  0
   -2.9241    1.0073    1.5268 C   0  0  0  0  0  0  0  0  0  0  0  0
   -2.7972    1.9955    0.5470 C   0  0  0  0  0  0  0  0  0  0  0  0
   -2.1453    1.7089   -0.6559 C   0  0  0  0  0  0  0  0  0  0  0  0
   -1.6099    0.4337   -0.8811 C   0  0  0  0  0  0  0  0  0  0  0  0
   -0.7614    0.0932   -2.4314 S   0  0  0  0  0  0  0  0  0  0  0  0
    0.8443    0.7869   -1.8991 C   0  0  0  0  0  0  0  0  0  0  0  0
    1.4942   -0.0857   -0.8610 C   0  0  0  0  0  0  0  0  0  0  0  0
    1.4946    0.2953    0.4918 C   0  0  0  0  0  0  0  0  0  0  0  0
    2.0680   -0.5375    1.4574 C   0  0  0  0  0  0  0  0  0  0  0  0
    2.6439   -1.7539    1.0807 C   0  0  0  0  0  0  0  0  0  0  0  0
    2.6459   -2.1403   -0.2625 C   0  0  0  0  0  0  0  0  0  0  0  0
    2.0718   -1.3114   -1.2312 C   0  0  0  0  0  0  0  0  0  0  0  0
   -2.5111   -1.0334    2.0646 H   0  0  0  0  0  0  0  0  0  0  0  0
   -3.4283    1.2309    2.4581 H   0  0  0  0  0  0  0  0  0  0  0  0
   -3.2030    2.9838    0.7200 H   0  0  0  0  0  0  0  0  0  0  0  0
   -2.0480    2.4812   -1.4083 H   0  0  0  0  0  0  0  0  0  0  0  0
    0.7009    1.8226   -1.5220 H   0  0  0  0  0  0  0  0  0  0  0  0
    1.5073    0.8533   -2.7875 H   0  0  0  0  0  0  0  0  0  0  0  0
    1.0417    1.2296    0.7999 H   0  0  0  0  0  0  0  0  0  0  0  0
    2.0626   -0.2415    2.4984 H   0  0  0  0  0  0  0  0  0  0  0  0
    3.0863   -2.3979    1.8296 H   0  0  0  0  0  0  0  0  0  0  0  0
    3.0890   -3.0842   -0.5526 H   0  0  0  0  0  0  0  0  0  0  0  0
    2.0713   -1.6256   -2.2677 H   0  0  0  0  0  0  0  0  0  0  0  0
  1  2  1  0
  2  3  2  0
  3  4  1  0
  4  5  2  0
  5  6  1  0
  6  7  2  0
  7  8  1  0
  8  9  1  0
  9 10  1  0
 10 11  2  0
 11 12  1  0
 12 13  2  0
 13 14  1  0
 14 15  2  0
  7  2  1  0
 15 10  1  0
  3 16  1  0
  4 17  1  0
  5 18  1  0
  6 19  1  0
  9 20  1  0
  9 21  1  0
 11 22  1  0
 12 23  1  0
 13 24  1  0
 14 25  1  0
 15 26  1  0
M  RAD  1   1   3
M  END
$$$$
