
     RDKit          3D

 26 27  0  0  0  0  0  0  0  0999 V2000
   -2.1933   -1.7543   -1.7902 N   0  0  0  0  0  1  0  0  0  0  0  0
   -2.7650   -0.7416   -0.9662 C   0  0  0  0  0  0  0  0  0  0  0  0
   -4.0022   -0.1857   -1.3140 C   0  0  0  0  0  0  0  0  0  0  0  0
   -4.5756    0.8076   -0.5145 C   0  0  0  0  0  0  0  0  0  0  0  0
   -3.9150    1.2479    0.6357 C   0  0  0  0  0  0  0  0  0  0  0  0
   -2.6796    0.6965    0.9878 C   0  0  0  0  0  0  0  0  0  0  0  0
   -2.0976   -0.2963    0.1884 C   0  0  0  0  0  0  0  0  0  0  0  0
   -0.5097   -0.9911    0.6634 S   0  0  0  0  0  0  0  0  0  0  0  0
    0.4493    0.2453   -0.2710 C   0  0  0  0  0  0  0  0  0  0  0  0
    1.9150   -0.0379   -0.1162 C   0  0  0  0  0  0  0  0  0  0  0  0
    2.5650   -0.9122   -1.0032 C   0  0  0  0  0  0  0  0  0  0  0  0
    3.9233   -1.2010   -0.8378 C   0  0  0  0  0  0  0  0  0  0  0  0
    4.6379   -0.6283    0.2181 C   0  0  0  0  0  0  0  0  0  0  0  0
    3.9944    0.2310    1.1131 C   0  0  0  0  0  0  0  0  0  0  0  0
    2.6362    0.5225    0.9513 C   0  0  0  0  0  0  0  0  0  0  0  0
   -4.5202   -0.5231   -2.2031 H   0  0  0  0  0  0  0  0  0  0  0  0
   -5.5320    1.2354   -0.7860 H   0  0  0  0  0  0  0  0  0  0  0  0
   -4.3603    2.0163    1.2543 H   0  0  0  0  0  0  0  0  0  0  0  0
   -2.1738    1.0435    1.8799 H   0  0  0  0  0  0  0  0  0  0  0  0
    0.1646    0.2062   -1.3448 H   0  0  0  0  0  0  0  0  0  0  0  0
    0.2143    1.2636    0.1079 H   0  0  0  0  0  0  0  0  0  0  0  0
    2.0204   -1.3698   -1.8199 H   0  0  0  0  0  0  0  0  0  0  0  0
    4.4211   -1.8717   -1.5262 H   0  0  0  0  0  0  0  0  0  0  0  0
    5.6888   -0.8539    0.3454 H   0  0  0  0  0  0  0  0  0  0  0  0
    4.5471    0.6685    1.9343 H   0  0  0  0  0  0  0  0  0  0  0  0
    2.1471    1.1825    1.6572 H   0  0  0  0  0  0  0  0  0  0  0  0
  1  2  1  0
  2  3  2  0
  3  4  1  0
  4  5  2  0
  5  6  1  0
  6  7  2  0
  7  8  1  0
  8  9  1  0
  9 10  1  0
 10 11  2  0
 11 12  1  0
 12 13  2  0
 13 14  1  0
 14 15  2  0
  7  2  1  0
 15 10  1  0
  3 16  1  0
  4 17  1  0
  5 18  1  0
  6 19  1  0
  9 20  1  0
  9 21  1  0
 11 22  1  0
 12 23  1  0
 13 24  1  0
 14 25  1  0
 15 26  1  0
M  RAD  1   1   3
M  END
$$$$
