
     RDKit          3D

 26 27  0  0  0  0  0  0  0  0999 V2000
   -1.9577   -1.2912   -2.4104 N   0  0  0  0  0  1  0  0  0  0  0  0
   -2.6297   -0.4580   -1.4693 C   0  0  0  0  0  0  0  0  0  0  0  0
   -3.9876   -0.6725   -1.2037 C   0  0  0  0  0  0  0  0  0  0  0  0
   -4.6599    0.1377   -0.2838 C   0  0  0  0  0  0  0  0  0  0  0  0
   -3.9778    1.1657    0.3728 C   0  0  0  0  0  0  0  0  0  0  0  0
   -2.6220    1.3845    0.1115 C   0  0  0  0  0  0  0  0  0  0  0  0
   -1.9414    0.5732   -0.8061 C   0  0  0  0  0  0  0  0  0  0  0  0
   -0.1991    0.8760   -1.1265 S   0  0  0  0  0  0  0  0  0  0  0  0
    0.3648   -0.2431    0.1967 C   0  0  0  0  0  0  0  0  0  0  0  0
    1.8652   -0.2646    0.2275 C   0  0  0  0  0  0  0  0  0  0  0  0
    2.5770   -1.1781   -0.5679 C   0  0  0  0  0  0  0  0  0  0  0  0
    3.9754   -1.1748   -0.5634 C   0  0  0  0  0  0  0  0  0  0  0  0
    4.6714   -0.2547    0.2256 C   0  0  0  0  0  0  0  0  0  0  0  0
    3.9700    0.6667    1.0083 C   0  0  0  0  0  0  0  0  0  0  0  0
    2.5715    0.6669    1.0067 C   0  0  0  0  0  0  0  0  0  0  0  0
   -4.5227   -1.4663   -1.7097 H   0  0  0  0  0  0  0  0  0  0  0  0
   -5.7096   -0.0306   -0.0806 H   0  0  0  0  0  0  0  0  0  0  0  0
   -4.4996    1.7929    1.0840 H   0  0  0  0  0  0  0  0  0  0  0  0
   -2.1004    2.1824    0.6247 H   0  0  0  0  0  0  0  0  0  0  0  0
   -0.0276   -1.2669    0.0136 H   0  0  0  0  0  0  0  0  0  0  0  0
   -0.0329    0.1053    1.1746 H   0  0  0  0  0  0  0  0  0  0  0  0
    2.0496   -1.8901   -1.1908 H   0  0  0  0  0  0  0  0  0  0  0  0
    4.5196   -1.8834   -1.1743 H   0  0  0  0  0  0  0  0  0  0  0  0
    5.7537   -0.2526    0.2269 H   0  0  0  0  0  0  0  0  0  0  0  0
    4.5100    1.3833    1.6136 H   0  0  0  0  0  0  0  0  0  0  0  0
    2.0400    1.3922    1.6104 H   0  0  0  0  0  0  0  0  0  0  0  0
  1  2  1  0
  2  3  2  0
  3  4  1  0
  4  5  2  0
  5  6  1  0
  6  7  2  0
  7  8  1  0
  8  9  1  0
  9 10  1  0
 10 11  2  0
 11 12  1  0
 12 13  2  0
 13 14  1  0
 14 15  2  0
  7  2  1  0
 15 10  1  0
  3 16  1  0
  4 17  1  0
  5 18  1  0
  6 19  1  0
  9 20  1  0
  9 21  1  0
 11 22  1  0
 12 23  1  0
 13 24  1  0
 14 25  1  0
 15 26  1  0
M  RAD  1   1   3
M  END
$$$$
