
     RDKit          3D

 26 27  0  0  0  0  0  0  0  0999 V2000
   -2.1919   -2.4342    0.3028 N   0  0  0  0  0  1  0  0  0  0  0  0
   -2.7609   -1.1482    0.0701 C   0  0  0  0  0  0  0  0  0  0  0  0
   -4.0783   -0.8938    0.4704 C   0  0  0  0  0  0  0  0  0  0  0  0
   -4.6499    0.3625    0.2476 C   0  0  0  0  0  0  0  0  0  0  0  0
   -3.9073    1.3683   -0.3769 C   0  0  0  0  0  0  0  0  0  0  0  0
   -2.5916    1.1199   -0.7787 C   0  0  0  0  0  0  0  0  0  0  0  0
   -2.0115   -0.1358   -0.5544 C   0  0  0  0  0  0  0  0  0  0  0  0
   -0.3191   -0.4311   -1.0822 S   0  0  0  0  0  0  0  0  0  0  0  0
    0.4002    0.1217    0.4985 C   0  0  0  0  0  0  0  0  0  0  0  0
    1.8946   -0.0033    0.4384 C   0  0  0  0  0  0  0  0  0  0  0  0
    2.6759    1.0598   -0.0442 C   0  0  0  0  0  0  0  0  0  0  0  0
    4.0656    0.9293   -0.1306 C   0  0  0  0  0  0  0  0  0  0  0  0
    4.6825   -0.2645    0.2537 C   0  0  0  0  0  0  0  0  0  0  0  0
    3.9102   -1.3316    0.7210 C   0  0  0  0  0  0  0  0  0  0  0  0
    2.5203   -1.2054    0.8090 C   0  0  0  0  0  0  0  0  0  0  0  0
   -4.6599   -1.6689    0.9537 H   0  0  0  0  0  0  0  0  0  0  0  0
   -5.6685    0.5561    0.5582 H   0  0  0  0  0  0  0  0  0  0  0  0
   -4.3511    2.3401   -0.5497 H   0  0  0  0  0  0  0  0  0  0  0  0
   -2.0225    1.9044   -1.2612 H   0  0  0  0  0  0  0  0  0  0  0  0
   -0.0013   -0.4979    1.3295 H   0  0  0  0  0  0  0  0  0  0  0  0
    0.1121    1.1782    0.6901 H   0  0  0  0  0  0  0  0  0  0  0  0
    2.2094    1.9869   -0.3540 H   0  0  0  0  0  0  0  0  0  0  0  0
    4.6641    1.7526   -0.4988 H   0  0  0  0  0  0  0  0  0  0  0  0
    5.7580   -0.3643    0.1849 H   0  0  0  0  0  0  0  0  0  0  0  0
    4.3884   -2.2581    1.0118 H   0  0  0  0  0  0  0  0  0  0  0  0
    1.9324   -2.0429    1.1639 H   0  0  0  0  0  0  0  0  0  0  0  0
  1  2  1  0
  2  3  2  0
  3  4  1  0
  4  5  2  0
  5  6  1  0
  6  7  2  0
  7  8  1  0
  8  9  1  0
  9 10  1  0
 10 11  2  0
 11 12  1  0
 12 13  2  0
 13 14  1  0
 14 15  2  0
  7  2  1  0
 15 10  1  0
  3 16  1  0
  4 17  1  0
  5 18  1  0
  6 19  1  0
  9 20  1  0
  9 21  1  0
 11 22  1  0
 12 23  1  0
 13 24  1  0
 14 25  1  0
 15 26  1  0
M  RAD  1   1   3
M  END
$$$$
