
     RDKit          3D

 27 28  0  0  0  0  0  0  0  0999 V2000
   -1.7851   -2.4135    0.4237 N   0  0  0  0  0  1  0  0  0  0  0  0
   -2.4173   -1.1773    0.0983 C   0  0  0  0  0  0  0  0  0  0  0  0
   -3.7487   -1.1848   -0.3348 C   0  0  0  0  0  0  0  0  0  0  0  0
   -4.3856    0.0112   -0.6742 C   0  0  0  0  0  0  0  0  0  0  0  0
   -3.6938    1.2208   -0.5870 C   0  0  0  0  0  0  0  0  0  0  0  0
   -2.3647    1.2385   -0.1555 C   0  0  0  0  0  0  0  0  0  0  0  0
   -1.7167    0.0436    0.2036 C   0  0  0  0  0  0  0  0  0  0  0  0
   -0.2713    0.0834    0.6352 C   0  0  0  0  0  0  0  0  0  0  0  0
    0.6564   -0.1209   -0.5663 C   0  0  0  0  0  0  0  0  0  0  0  0
    2.0974   -0.0838   -0.1344 C   0  0  0  0  0  0  0  0  0  0  0  0
    2.7441   -1.2574    0.2797 C   0  0  0  0  0  0  0  0  0  0  0  0
    4.0720   -1.1962    0.7086 C   0  0  0  0  0  0  0  0  0  0  0  0
    4.7266   -0.0050    0.7335 N   0  0  0  0  0  0  0  0  0  0  0  0
    4.1209    1.1502    0.3496 C   0  0  0  0  0  0  0  0  0  0  0  0
    5.0107    2.6582    0.4103 Cl  0  0  0  0  0  0  0  0  0  0  0  0
    2.7928    1.1334   -0.0867 C   0  0  0  0  0  0  0  0  0  0  0  0
   -4.2901   -2.1195   -0.4126 H   0  0  0  0  0  0  0  0  0  0  0  0
   -5.4146   -0.0002   -1.0098 H   0  0  0  0  0  0  0  0  0  0  0  0
   -4.1867    2.1458   -0.8573 H   0  0  0  0  0  0  0  0  0  0  0  0
   -1.8396    2.1843   -0.1026 H   0  0  0  0  0  0  0  0  0  0  0  0
   -0.0475    1.0621    1.1149 H   0  0  0  0  0  0  0  0  0  0  0  0
   -0.0792   -0.7007    1.3999 H   0  0  0  0  0  0  0  0  0  0  0  0
    0.4351   -1.0972   -1.0514 H   0  0  0  0  0  0  0  0  0  0  0  0
    0.4697    0.6734   -1.3226 H   0  0  0  0  0  0  0  0  0  0  0  0
    2.2251   -2.2080    0.2718 H   0  0  0  0  0  0  0  0  0  0  0  0
    4.5816   -2.0963    1.0255 H   0  0  0  0  0  0  0  0  0  0  0  0
    2.3084    2.0559   -0.3829 H   0  0  0  0  0  0  0  0  0  0  0  0
  1  2  1  0
  2  3  2  0
  3  4  1  0
  4  5  2  0
  5  6  1  0
  6  7  2  0
  7  8  1  0
  8  9  1  0
  9 10  1  0
 10 11  2  0
 11 12  1  0
 12 13  2  0
 13 14  1  0
 14 15  1  0
 14 16  2  0
  7  2  1  0
 16 10  1  0
  3 17  1  0
  4 18  1  0
  5 19  1  0
  6 20  1  0
  8 21  1  0
  8 22  1  0
  9 23  1  0
  9 24  1  0
 11 25  1  0
 12 26  1  0
 16 27  1  0
M  RAD  1   1   3
M  END
$$$$
