
     RDKit          3D

 27 28  0  0  0  0  0  0  0  0999 V2000
   -2.0391    2.1815    0.5849 N   0  0  0  0  0  1  0  0  0  0  0  0
   -2.5284    0.8546    0.4013 C   0  0  0  0  0  0  0  0  0  0  0  0
   -3.8382    0.5501    0.7912 C   0  0  0  0  0  0  0  0  0  0  0  0
   -4.3359   -0.7459    0.6360 C   0  0  0  0  0  0  0  0  0  0  0  0
   -3.5255   -1.7457    0.0946 C   0  0  0  0  0  0  0  0  0  0  0  0
   -2.2169   -1.4514   -0.2976 C   0  0  0  0  0  0  0  0  0  0  0  0
   -1.7087   -0.1477   -0.1609 C   0  0  0  0  0  0  0  0  0  0  0  0
   -0.2822    0.1391   -0.5608 C   0  0  0  0  0  0  0  0  0  0  0  0
    0.6588   -0.0357    0.6350 C   0  0  0  0  0  0  0  0  0  0  0  0
    2.0807    0.2532    0.2359 C   0  0  0  0  0  0  0  0  0  0  0  0
    2.5879    1.5585    0.3136 C   0  0  0  0  0  0  0  0  0  0  0  0
    3.8999    1.8117   -0.0932 C   0  0  0  0  0  0  0  0  0  0  0  0
    4.6734    0.8008   -0.5703 N   0  0  0  0  0  0  0  0  0  0  0  0
    4.2041   -0.4715   -0.6684 C   0  0  0  0  0  0  0  0  0  0  0  0
    5.2430   -1.7335   -1.2988 Cl  0  0  0  0  0  0  0  0  0  0  0  0
    2.8966   -0.7684   -0.2720 C   0  0  0  0  0  0  0  0  0  0  0  0
   -4.4708    1.3179    1.2190 H   0  0  0  0  0  0  0  0  0  0  0  0
   -5.3487   -0.9764    0.9403 H   0  0  0  0  0  0  0  0  0  0  0  0
   -3.9104   -2.7510   -0.0182 H   0  0  0  0  0  0  0  0  0  0  0  0
   -1.5985   -2.2408   -0.7070 H   0  0  0  0  0  0  0  0  0  0  0  0
   -0.1982    1.1730   -0.9612 H   0  0  0  0  0  0  0  0  0  0  0  0
    0.0258   -0.5488   -1.3793 H   0  0  0  0  0  0  0  0  0  0  0  0
    0.5809   -1.0752    1.0238 H   0  0  0  0  0  0  0  0  0  0  0  0
    0.3537    0.6482    1.4576 H   0  0  0  0  0  0  0  0  0  0  0  0
    1.9736    2.3702    0.6834 H   0  0  0  0  0  0  0  0  0  0  0  0
    4.3024    2.8140   -0.0328 H   0  0  0  0  0  0  0  0  0  0  0  0
    2.5207   -1.7805   -0.3599 H   0  0  0  0  0  0  0  0  0  0  0  0
  1  2  1  0
  2  3  2  0
  3  4  1  0
  4  5  2  0
  5  6  1  0
  6  7  2  0
  7  8  1  0
  8  9  1  0
  9 10  1  0
 10 11  2  0
 11 12  1  0
 12 13  2  0
 13 14  1  0
 14 15  1  0
 14 16  2  0
  7  2  1  0
 16 10  1  0
  3 17  1  0
  4 18  1  0
  5 19  1  0
  6 20  1  0
  8 21  1  0
  8 22  1  0
  9 23  1  0
  9 24  1  0
 11 25  1  0
 12 26  1  0
 16 27  1  0
M  RAD  1   1   3
M  END
$$$$
