
     RDKit          3D

 27 28  0  0  0  0  0  0  0  0999 V2000
   -1.8555   -0.7190   -2.3486 N   0  0  0  0  0  1  0  0  0  0  0  0
   -2.4481   -0.2025   -1.1588 C   0  0  0  0  0  0  0  0  0  0  0  0
   -3.7689    0.2605   -1.1997 C   0  0  0  0  0  0  0  0  0  0  0  0
   -4.3670    0.7852   -0.0515 C   0  0  0  0  0  0  0  0  0  0  0  0
   -3.6468    0.8542    1.1426 C   0  0  0  0  0  0  0  0  0  0  0  0
   -2.3281    0.3943    1.1933 C   0  0  0  0  0  0  0  0  0  0  0  0
   -1.7193   -0.1500    0.0489 C   0  0  0  0  0  0  0  0  0  0  0  0
   -0.2839   -0.6100    0.1189 C   0  0  0  0  0  0  0  0  0  0  0  0
    0.6661    0.5244   -0.2767 C   0  0  0  0  0  0  0  0  0  0  0  0
    2.0972    0.0639   -0.2092 C   0  0  0  0  0  0  0  0  0  0  0  0
    2.7039   -0.5317   -1.3246 C   0  0  0  0  0  0  0  0  0  0  0  0
    4.0226   -0.9828   -1.2311 C   0  0  0  0  0  0  0  0  0  0  0  0
    4.7065   -0.8539   -0.0633 N   0  0  0  0  0  0  0  0  0  0  0  0
    4.1395   -0.2919    1.0373 C   0  0  0  0  0  0  0  0  0  0  0  0
    5.0657   -0.1591    2.5185 Cl  0  0  0  0  0  0  0  0  0  0  0  0
    2.8220    0.1729    0.9867 C   0  0  0  0  0  0  0  0  0  0  0  0
   -4.3319    0.2177   -2.1237 H   0  0  0  0  0  0  0  0  0  0  0  0
   -5.3878    1.1432   -0.0887 H   0  0  0  0  0  0  0  0  0  0  0  0
   -4.1095    1.2677    2.0295 H   0  0  0  0  0  0  0  0  0  0  0  0
   -1.7804    0.4638    2.1252 H   0  0  0  0  0  0  0  0  0  0  0  0
   -0.0465   -0.9499    1.1515 H   0  0  0  0  0  0  0  0  0  0  0  0
   -0.1297   -1.4843   -0.5506 H   0  0  0  0  0  0  0  0  0  0  0  0
    0.5175    1.3917    0.4041 H   0  0  0  0  0  0  0  0  0  0  0  0
    0.4315    0.8700   -1.3077 H   0  0  0  0  0  0  0  0  0  0  0  0
    2.1613   -0.6465   -2.2548 H   0  0  0  0  0  0  0  0  0  0  0  0
    4.5015   -1.4393   -2.0869 H   0  0  0  0  0  0  0  0  0  0  0  0
    2.3682    0.6114    1.8672 H   0  0  0  0  0  0  0  0  0  0  0  0
  1  2  1  0
  2  3  2  0
  3  4  1  0
  4  5  2  0
  5  6  1  0
  6  7  2  0
  7  8  1  0
  8  9  1  0
  9 10  1  0
 10 11  2  0
 11 12  1  0
 12 13  2  0
 13 14  1  0
 14 15  1  0
 14 16  2  0
  7  2  1  0
 16 10  1  0
  3 17  1  0
  4 18  1  0
  5 19  1  0
  6 20  1  0
  8 21  1  0
  8 22  1  0
  9 23  1  0
  9 24  1  0
 11 25  1  0
 12 26  1  0
 16 27  1  0
M  RAD  1   1   3
M  END
$$$$
