
     RDKit          3D

 27 28  0  0  0  0  0  0  0  0999 V2000
   -2.4470   -1.3971   -2.0604 N   0  0  0  0  0  1  0  0  0  0  0  0
   -2.2990   -0.4600   -0.9958 C   0  0  0  0  0  0  0  0  0  0  0  0
   -3.0931    0.6931   -0.9859 C   0  0  0  0  0  0  0  0  0  0  0  0
   -2.9587    1.6320    0.0396 C   0  0  0  0  0  0  0  0  0  0  0  0
   -2.0295    1.4239    1.0605 C   0  0  0  0  0  0  0  0  0  0  0  0
   -1.2342    0.2752    1.0604 C   0  0  0  0  0  0  0  0  0  0  0  0
   -1.3632   -0.6809    0.0372 C   0  0  0  0  0  0  0  0  0  0  0  0
   -0.4561   -1.8902    0.0287 C   0  0  0  0  0  0  0  0  0  0  0  0
    0.7527   -1.6924   -0.8972 C   0  0  0  0  0  0  0  0  0  0  0  0
    1.6454   -0.5754   -0.4200 C   0  0  0  0  0  0  0  0  0  0  0  0
    2.5786   -0.8019    0.6019 C   0  0  0  0  0  0  0  0  0  0  0  0
    3.3631    0.2574    1.0640 C   0  0  0  0  0  0  0  0  0  0  0  0
    3.2137    1.4996    0.5323 N   0  0  0  0  0  0  0  0  0  0  0  0
    2.3112    1.7500   -0.4532 C   0  0  0  0  0  0  0  0  0  0  0  0
    2.1507    3.3735   -1.0915 Cl  0  0  0  0  0  0  0  0  0  0  0  0
    1.5092    0.7176   -0.9473 C   0  0  0  0  0  0  0  0  0  0  0  0
   -3.8130    0.8644   -1.7765 H   0  0  0  0  0  0  0  0  0  0  0  0
   -3.5729    2.5231    0.0409 H   0  0  0  0  0  0  0  0  0  0  0  0
   -1.9221    2.1555    1.8508 H   0  0  0  0  0  0  0  0  0  0  0  0
   -0.5088    0.1363    1.8527 H   0  0  0  0  0  0  0  0  0  0  0  0
   -0.1024   -2.1178    1.0586 H   0  0  0  0  0  0  0  0  0  0  0  0
   -1.0274   -2.7820   -0.3081 H   0  0  0  0  0  0  0  0  0  0  0  0
    1.3360   -2.6383   -0.9314 H   0  0  0  0  0  0  0  0  0  0  0  0
    0.4058   -1.4946   -1.9350 H   0  0  0  0  0  0  0  0  0  0  0  0
    2.6926   -1.7862    1.0387 H   0  0  0  0  0  0  0  0  0  0  0  0
    4.0875    0.0928    1.8503 H   0  0  0  0  0  0  0  0  0  0  0  0
    0.7808    0.9224   -1.7224 H   0  0  0  0  0  0  0  0  0  0  0  0
  1  2  1  0
  2  3  2  0
  3  4  1  0
  4  5  2  0
  5  6  1  0
  6  7  2  0
  7  8  1  0
  8  9  1  0
  9 10  1  0
 10 11  2  0
 11 12  1  0
 12 13  2  0
 13 14  1  0
 14 15  1  0
 14 16  2  0
  7  2  1  0
 16 10  1  0
  3 17  1  0
  4 18  1  0
  5 19  1  0
  6 20  1  0
  8 21  1  0
  8 22  1  0
  9 23  1  0
  9 24  1  0
 11 25  1  0
 12 26  1  0
 16 27  1  0
M  RAD  1   1   3
M  END
$$$$
