
     RDKit          3D

 27 28  0  0  0  0  0  0  0  0999 V2000
    1.8099    1.7634    1.7051 N   0  0  0  0  0  1  0  0  0  0  0  0
    2.4310    0.7842    0.8750 C   0  0  0  0  0  0  0  0  0  0  0  0
    3.8012    0.8875    0.6058 C   0  0  0  0  0  0  0  0  0  0  0  0
    4.4299   -0.0503   -0.2168 C   0  0  0  0  0  0  0  0  0  0  0  0
    3.6916   -1.0937   -0.7786 C   0  0  0  0  0  0  0  0  0  0  0  0
    2.3237   -1.2052   -0.5156 C   0  0  0  0  0  0  0  0  0  0  0  0
    1.6817   -0.2769    0.3227 C   0  0  0  0  0  0  0  0  0  0  0  0
    0.1974   -0.3983    0.5661 C   0  0  0  0  0  0  0  0  0  0  0  0
   -0.5864    0.4292   -0.4570 C   0  0  0  0  0  0  0  0  0  0  0  0
   -2.0663    0.3097   -0.2118 C   0  0  0  0  0  0  0  0  0  0  0  0
   -2.7136    1.1931    0.6644 C   0  0  0  0  0  0  0  0  0  0  0  0
   -4.0816    1.0445    0.9043 C   0  0  0  0  0  0  0  0  0  0  0  0
   -4.7755    0.0438    0.2999 N   0  0  0  0  0  0  0  0  0  0  0  0
   -4.1716   -0.8344   -0.5443 C   0  0  0  0  0  0  0  0  0  0  0  0
   -5.1138   -2.1101   -1.2887 Cl  0  0  0  0  0  0  0  0  0  0  0  0
   -2.8040   -0.7213   -0.8120 C   0  0  0  0  0  0  0  0  0  0  0  0
    4.3795    1.6981    1.0314 H   0  0  0  0  0  0  0  0  0  0  0  0
    5.4890    0.0349   -0.4229 H   0  0  0  0  0  0  0  0  0  0  0  0
    4.1790   -1.8152   -1.4216 H   0  0  0  0  0  0  0  0  0  0  0  0
    1.7638   -2.0151   -0.9670 H   0  0  0  0  0  0  0  0  0  0  0  0
   -0.0498   -0.0604    1.5961 H   0  0  0  0  0  0  0  0  0  0  0  0
   -0.1106   -1.4652    0.4949 H   0  0  0  0  0  0  0  0  0  0  0  0
   -0.2803    1.4967   -0.3920 H   0  0  0  0  0  0  0  0  0  0  0  0
   -0.3459    0.0788   -1.4852 H   0  0  0  0  0  0  0  0  0  0  0  0
   -2.1646    1.9862    1.1568 H   0  0  0  0  0  0  0  0  0  0  0  0
   -4.5915    1.7234    1.5746 H   0  0  0  0  0  0  0  0  0  0  0  0
   -2.3222   -1.4276   -1.4770 H   0  0  0  0  0  0  0  0  0  0  0  0
  1  2  1  0
  2  3  2  0
  3  4  1  0
  4  5  2  0
  5  6  1  0
  6  7  2  0
  7  8  1  0
  8  9  1  0
  9 10  1  0
 10 11  2  0
 11 12  1  0
 12 13  2  0
 13 14  1  0
 14 15  1  0
 14 16  2  0
  7  2  1  0
 16 10  1  0
  3 17  1  0
  4 18  1  0
  5 19  1  0
  6 20  1  0
  8 21  1  0
  8 22  1  0
  9 23  1  0
  9 24  1  0
 11 25  1  0
 12 26  1  0
 16 27  1  0
M  RAD  1   1   3
M  END
$$$$
