
     RDKit          3D

 27 28  0  0  0  0  0  0  0  0999 V2000
   -1.9401   -0.1042   -2.8374 N   0  0  0  0  0  1  0  0  0  0  0  0
   -2.0354    0.2365   -1.4560 C   0  0  0  0  0  0  0  0  0  0  0  0
   -2.8106    1.3390   -1.0767 C   0  0  0  0  0  0  0  0  0  0  0  0
   -2.9105    1.7002    0.2690 C   0  0  0  0  0  0  0  0  0  0  0  0
   -2.2357    0.9618    1.2429 C   0  0  0  0  0  0  0  0  0  0  0  0
   -1.4616   -0.1413    0.8743 C   0  0  0  0  0  0  0  0  0  0  0  0
   -1.3570   -0.5194   -0.4762 C   0  0  0  0  0  0  0  0  0  0  0  0
   -0.4721   -1.6842   -0.8575 C   0  0  0  0  0  0  0  0  0  0  0  0
    0.9145   -1.2202   -1.3260 C   0  0  0  0  0  0  0  0  0  0  0  0
    1.6773   -0.5345   -0.2213 C   0  0  0  0  0  0  0  0  0  0  0  0
    2.3557   -1.2900    0.7457 C   0  0  0  0  0  0  0  0  0  0  0  0
    3.0164   -0.6376    1.7892 C   0  0  0  0  0  0  0  0  0  0  0  0
    2.9916    0.7192    1.8698 N   0  0  0  0  0  0  0  0  0  0  0  0
    2.3349    1.4766    0.9514 C   0  0  0  0  0  0  0  0  0  0  0  0
    2.3235    3.2209    1.1126 Cl  0  0  0  0  0  0  0  0  0  0  0  0
    1.6644    0.8641   -0.1109 C   0  0  0  0  0  0  0  0  0  0  0  0
   -3.3335    1.9198   -1.8262 H   0  0  0  0  0  0  0  0  0  0  0  0
   -3.5086    2.5551    0.5566 H   0  0  0  0  0  0  0  0  0  0  0  0
   -2.3089    1.2469    2.2844 H   0  0  0  0  0  0  0  0  0  0  0  0
   -0.9337   -0.6947    1.6414 H   0  0  0  0  0  0  0  0  0  0  0  0
   -0.3600   -2.3839    0.0000 H   0  0  0  0  0  0  0  0  0  0  0  0
   -0.9533   -2.2661   -1.6729 H   0  0  0  0  0  0  0  0  0  0  0  0
    0.8108   -0.5440   -2.2027 H   0  0  0  0  0  0  0  0  0  0  0  0
    1.4899   -2.1058   -1.6734 H   0  0  0  0  0  0  0  0  0  0  0  0
    2.3677   -2.3717    0.6944 H   0  0  0  0  0  0  0  0  0  0  0  0
    3.5446   -1.2111    2.5391 H   0  0  0  0  0  0  0  0  0  0  0  0
    1.1297    1.4687   -0.8335 H   0  0  0  0  0  0  0  0  0  0  0  0
  1  2  1  0
  2  3  2  0
  3  4  1  0
  4  5  2  0
  5  6  1  0
  6  7  2  0
  7  8  1  0
  8  9  1  0
  9 10  1  0
 10 11  2  0
 11 12  1  0
 12 13  2  0
 13 14  1  0
 14 15  1  0
 14 16  2  0
  7  2  1  0
 16 10  1  0
  3 17  1  0
  4 18  1  0
  5 19  1  0
  6 20  1  0
  8 21  1  0
  8 22  1  0
  9 23  1  0
  9 24  1  0
 11 25  1  0
 12 26  1  0
 16 27  1  0
M  RAD  1   1   3
M  END
$$$$
