
     RDKit          3D

 27 28  0  0  0  0  0  0  0  0999 V2000
   -2.1588   -0.3009   -2.6978 N   0  0  0  0  0  1  0  0  0  0  0  0
   -2.1528    0.1071   -1.3314 C   0  0  0  0  0  0  0  0  0  0  0  0
   -2.9286    1.2061   -0.9436 C   0  0  0  0  0  0  0  0  0  0  0  0
   -2.9306    1.6325    0.3865 C   0  0  0  0  0  0  0  0  0  0  0  0
   -2.1567    0.9632    1.3364 C   0  0  0  0  0  0  0  0  0  0  0  0
   -1.3810   -0.1360    0.9594 C   0  0  0  0  0  0  0  0  0  0  0  0
   -1.3742   -0.5794   -0.3752 C   0  0  0  0  0  0  0  0  0  0  0  0
   -0.4874   -1.7378   -0.7710 C   0  0  0  0  0  0  0  0  0  0  0  0
    0.8418   -1.2610   -1.3740 C   0  0  0  0  0  0  0  0  0  0  0  0
    1.6697   -0.4996   -0.3704 C   0  0  0  0  0  0  0  0  0  0  0  0
    2.4472   -1.1863    0.5732 C   0  0  0  0  0  0  0  0  0  0  0  0
    3.1694   -0.4641    1.5259 C   0  0  0  0  0  0  0  0  0  0  0  0
    3.1091    0.8939    1.5422 N   0  0  0  0  0  0  0  0  0  0  0  0
    2.3571    1.5856    0.6453 C   0  0  0  0  0  0  0  0  0  0  0  0
    2.3047    3.3349    0.7220 Cl  0  0  0  0  0  0  0  0  0  0  0  0
    1.6223    0.9019   -0.3273 C   0  0  0  0  0  0  0  0  0  0  0  0
   -3.5282    1.7337   -1.6749 H   0  0  0  0  0  0  0  0  0  0  0  0
   -3.5298    2.4845    0.6805 H   0  0  0  0  0  0  0  0  0  0  0  0
   -2.1544    1.2989    2.3653 H   0  0  0  0  0  0  0  0  0  0  0  0
   -0.7760   -0.6352    1.7063 H   0  0  0  0  0  0  0  0  0  0  0  0
   -0.2846   -2.3897    0.1073 H   0  0  0  0  0  0  0  0  0  0  0  0
   -1.0145   -2.3733   -1.5149 H   0  0  0  0  0  0  0  0  0  0  0  0
    0.6467   -0.6334   -2.2709 H   0  0  0  0  0  0  0  0  0  0  0  0
    1.4145   -2.1473   -1.7241 H   0  0  0  0  0  0  0  0  0  0  0  0
    2.4885   -2.2685    0.5736 H   0  0  0  0  0  0  0  0  0  0  0  0
    3.7741   -0.9841    2.2567 H   0  0  0  0  0  0  0  0  0  0  0  0
    1.0125    1.4543   -1.0319 H   0  0  0  0  0  0  0  0  0  0  0  0
  1  2  1  0
  2  3  2  0
  3  4  1  0
  4  5  2  0
  5  6  1  0
  6  7  2  0
  7  8  1  0
  8  9  1  0
  9 10  1  0
 10 11  2  0
 11 12  1  0
 12 13  2  0
 13 14  1  0
 14 15  1  0
 14 16  2  0
  7  2  1  0
 16 10  1  0
  3 17  1  0
  4 18  1  0
  5 19  1  0
  6 20  1  0
  8 21  1  0
  8 22  1  0
  9 23  1  0
  9 24  1  0
 11 25  1  0
 12 26  1  0
 16 27  1  0
M  RAD  1   1   3
M  END
$$$$
