
     RDKit          3D

 27 28  0  0  0  0  0  0  0  0999 V2000
   -2.0329   -2.2236   -0.3926 N   0  0  0  0  0  1  0  0  0  0  0  0
   -2.5301   -0.9109   -0.1410 C   0  0  0  0  0  0  0  0  0  0  0  0
   -3.8801   -0.6334   -0.3882 C   0  0  0  0  0  0  0  0  0  0  0  0
   -4.3880    0.6485   -0.1644 C   0  0  0  0  0  0  0  0  0  0  0  0
   -3.5483    1.6613    0.3031 C   0  0  0  0  0  0  0  0  0  0  0  0
   -2.1996    1.3939    0.5530 C   0  0  0  0  0  0  0  0  0  0  0  0
   -1.6792    0.1043    0.3464 C   0  0  0  0  0  0  0  0  0  0  0  0
   -0.2126   -0.1527    0.5916 C   0  0  0  0  0  0  0  0  0  0  0  0
    0.5942    0.0578   -0.6931 C   0  0  0  0  0  0  0  0  0  0  0  0
    2.0562   -0.2014   -0.4482 C   0  0  0  0  0  0  0  0  0  0  0  0
    2.5819   -1.4933   -0.5960 C   0  0  0  0  0  0  0  0  0  0  0  0
    3.9346   -1.7197   -0.3316 C   0  0  0  0  0  0  0  0  0  0  0  0
    4.7306   -0.6959    0.0762 N   0  0  0  0  0  0  0  0  0  0  0  0
    4.2455    0.5636    0.2398 C   0  0  0  0  0  0  0  0  0  0  0  0
    5.3158    1.8430    0.7757 Cl  0  0  0  0  0  0  0  0  0  0  0  0
    2.8974    0.8336   -0.0142 C   0  0  0  0  0  0  0  0  0  0  0  0
   -4.5363   -1.4113   -0.7582 H   0  0  0  0  0  0  0  0  0  0  0  0
   -5.4320    0.8582   -0.3585 H   0  0  0  0  0  0  0  0  0  0  0  0
   -3.9420    2.6558    0.4690 H   0  0  0  0  0  0  0  0  0  0  0  0
   -1.5598    2.1933    0.9064 H   0  0  0  0  0  0  0  0  0  0  0  0
    0.1636    0.5332    1.3829 H   0  0  0  0  0  0  0  0  0  0  0  0
   -0.0638   -1.1887    0.9671 H   0  0  0  0  0  0  0  0  0  0  0  0
    0.2204   -0.6239   -1.4887 H   0  0  0  0  0  0  0  0  0  0  0  0
    0.4527    1.0994   -1.0575 H   0  0  0  0  0  0  0  0  0  0  0  0
    1.9509   -2.3153   -0.9109 H   0  0  0  0  0  0  0  0  0  0  0  0
    4.3512   -2.7113   -0.4471 H   0  0  0  0  0  0  0  0  0  0  0  0
    2.5100    1.8354    0.1261 H   0  0  0  0  0  0  0  0  0  0  0  0
  1  2  1  0
  2  3  2  0
  3  4  1  0
  4  5  2  0
  5  6  1  0
  6  7  2  0
  7  8  1  0
  8  9  1  0
  9 10  1  0
 10 11  2  0
 11 12  1  0
 12 13  2  0
 13 14  1  0
 14 15  1  0
 14 16  2  0
  7  2  1  0
 16 10  1  0
  3 17  1  0
  4 18  1  0
  5 19  1  0
  6 20  1  0
  8 21  1  0
  8 22  1  0
  9 23  1  0
  9 24  1  0
 11 25  1  0
 12 26  1  0
 16 27  1  0
M  RAD  1   1   3
M  END
$$$$
