
     RDKit          3D

 27 28  0  0  0  0  0  0  0  0999 V2000
   -2.1360   -2.2643   -1.4239 N   0  0  0  0  0  1  0  0  0  0  0  0
   -2.6143   -1.1393   -0.6888 C   0  0  0  0  0  0  0  0  0  0  0  0
   -3.9947   -0.9731   -0.5273 C   0  0  0  0  0  0  0  0  0  0  0  0
   -4.4940    0.1166    0.1861 C   0  0  0  0  0  0  0  0  0  0  0  0
   -3.6165    1.0467    0.7422 C   0  0  0  0  0  0  0  0  0  0  0  0
   -2.2361    0.8919    0.5878 C   0  0  0  0  0  0  0  0  0  0  0  0
   -1.7115   -0.2056   -0.1315 C   0  0  0  0  0  0  0  0  0  0  0  0
   -0.2191   -0.4226   -0.3301 C   0  0  0  0  0  0  0  0  0  0  0  0
    0.6987    0.6330    0.3050 C   0  0  0  0  0  0  0  0  0  0  0  0
    2.1438    0.3046    0.0372 C   0  0  0  0  0  0  0  0  0  0  0  0
    2.8597   -0.5186    0.9188 C   0  0  0  0  0  0  0  0  0  0  0  0
    4.1894   -0.8384    0.6348 C   0  0  0  0  0  0  0  0  0  0  0  0
    4.7795   -0.3626   -0.4936 N   0  0  0  0  0  0  0  0  0  0  0  0
    4.1064    0.4271   -1.3721 C   0  0  0  0  0  0  0  0  0  0  0  0
    4.9149    1.0050   -2.8150 Cl  0  0  0  0  0  0  0  0  0  0  0  0
    2.7739    0.7714   -1.1259 C   0  0  0  0  0  0  0  0  0  0  0  0
   -4.6826   -1.6911   -0.9561 H   0  0  0  0  0  0  0  0  0  0  0  0
   -5.5624    0.2403    0.3080 H   0  0  0  0  0  0  0  0  0  0  0  0
   -4.0066    1.8915    1.2953 H   0  0  0  0  0  0  0  0  0  0  0  0
   -1.5953    1.6372    1.0359 H   0  0  0  0  0  0  0  0  0  0  0  0
   -0.0160   -0.4528   -1.4234 H   0  0  0  0  0  0  0  0  0  0  0  0
    0.0454   -1.4174    0.0915 H   0  0  0  0  0  0  0  0  0  0  0  0
    0.5268    0.6697    1.4032 H   0  0  0  0  0  0  0  0  0  0  0  0
    0.4657    1.6363   -0.1148 H   0  0  0  0  0  0  0  0  0  0  0  0
    2.3929   -0.9093    1.8145 H   0  0  0  0  0  0  0  0  0  0  0  0
    4.7518   -1.4686    1.3107 H   0  0  0  0  0  0  0  0  0  0  0  0
    2.2361    1.3925   -1.8318 H   0  0  0  0  0  0  0  0  0  0  0  0
  1  2  1  0
  2  3  2  0
  3  4  1  0
  4  5  2  0
  5  6  1  0
  6  7  2  0
  7  8  1  0
  8  9  1  0
  9 10  1  0
 10 11  2  0
 11 12  1  0
 12 13  2  0
 13 14  1  0
 14 15  1  0
 14 16  2  0
  7  2  1  0
 16 10  1  0
  3 17  1  0
  4 18  1  0
  5 19  1  0
  6 20  1  0
  8 21  1  0
  8 22  1  0
  9 23  1  0
  9 24  1  0
 11 25  1  0
 12 26  1  0
 16 27  1  0
M  RAD  1   1   3
M  END
$$$$
