
     RDKit          3D

 24 24  0  0  0  0  0  0  0  0999 V2000
    2.7590    1.2886   -0.6720 C   0  0  0  0  0  0  0  0  0  0  0  0
    2.0265   -0.0415   -0.8467 C   0  0  0  0  0  0  0  0  0  0  0  0
    1.6316   -0.6820    0.4952 C   0  0  0  0  0  0  0  0  0  0  0  0
    0.4687    0.0286    1.2096 C   0  0  0  0  0  0  0  0  0  0  0  0
   -0.8353   -0.1091    0.4552 C   0  0  0  0  0  0  0  0  0  0  0  0
   -1.5200   -1.3371    0.4899 C   0  0  0  0  0  0  0  0  0  0  0  0
   -2.7172   -1.5022   -0.2113 C   0  0  0  0  0  0  0  0  0  0  0  0
   -3.2434   -0.4455   -0.9561 C   0  0  0  0  0  0  0  0  0  0  0  0
   -2.5738    0.7792   -1.0015 C   0  0  0  0  0  0  0  0  0  0  0  0
   -1.3735    0.9551   -0.3022 C   0  0  0  0  0  0  0  0  0  0  0  0
   -0.7133    2.2169   -0.3694 N   0  0  0  0  0  1  0  0  0  0  0  0
    2.0931    2.0528   -0.2228 H   0  0  0  0  0  0  0  0  0  0  0  0
    3.0910    1.6593   -1.6645 H   0  0  0  0  0  0  0  0  0  0  0  0
    3.6542    1.1564   -0.0279 H   0  0  0  0  0  0  0  0  0  0  0  0
    2.7066   -0.7407   -1.3796 H   0  0  0  0  0  0  0  0  0  0  0  0
    1.1336    0.1029   -1.4909 H   0  0  0  0  0  0  0  0  0  0  0  0
    1.3517   -1.7428    0.3141 H   0  0  0  0  0  0  0  0  0  0  0  0
    2.5151   -0.6963    1.1701 H   0  0  0  0  0  0  0  0  0  0  0  0
    0.7216    1.0918    1.3997 H   0  0  0  0  0  0  0  0  0  0  0  0
    0.3443   -0.4330    2.2135 H   0  0  0  0  0  0  0  0  0  0  0  0
   -1.1243   -2.1682    1.0607 H   0  0  0  0  0  0  0  0  0  0  0  0
   -3.2368   -2.4511   -0.1781 H   0  0  0  0  0  0  0  0  0  0  0  0
   -4.1706   -0.5756   -1.4991 H   0  0  0  0  0  0  0  0  0  0  0  0
   -2.9888    1.5934   -1.5825 H   0  0  0  0  0  0  0  0  0  0  0  0
  1  2  1  0
  2  3  1  0
  3  4  1  0
  4  5  1  0
  5  6  2  0
  6  7  1  0
  7  8  2  0
  8  9  1  0
  9 10  2  0
 10 11  1  0
 10  5  1  0
  1 12  1  0
  1 13  1  0
  1 14  1  0
  2 15  1  0
  2 16  1  0
  3 17  1  0
  3 18  1  0
  4 19  1  0
  4 20  1  0
  6 21  1  0
  7 22  1  0
  8 23  1  0
  9 24  1  0
M  RAD  1  11   3
M  END
$$$$
