
     RDKit          3D

 24 24  0  0  0  0  0  0  0  0999 V2000
   -3.6915    0.7070   -0.6544 C   0  0  0  0  0  0  0  0  0  0  0  0
   -2.7321    0.0904    0.3593 C   0  0  0  0  0  0  0  0  0  0  0  0
   -1.2807    0.1837   -0.1243 C   0  0  0  0  0  0  0  0  0  0  0  0
   -0.3196   -0.4360    0.8960 C   0  0  0  0  0  0  0  0  0  0  0  0
    1.1063   -0.3375    0.4112 C   0  0  0  0  0  0  0  0  0  0  0  0
    1.8813    0.7815    0.7637 C   0  0  0  0  0  0  0  0  0  0  0  0
    3.1940    0.9076    0.3013 C   0  0  0  0  0  0  0  0  0  0  0  0
    3.7428   -0.0752   -0.5247 C   0  0  0  0  0  0  0  0  0  0  0  0
    2.9788   -1.1845   -0.8946 C   0  0  0  0  0  0  0  0  0  0  0  0
    1.6626   -1.3196   -0.4365 C   0  0  0  0  0  0  0  0  0  0  0  0
    0.8988   -2.4538   -0.8413 N   0  0  0  0  0  1  0  0  0  0  0  0
   -3.4527    1.7809   -0.8081 H   0  0  0  0  0  0  0  0  0  0  0  0
   -4.7330    0.6252   -0.2780 H   0  0  0  0  0  0  0  0  0  0  0  0
   -3.6220    0.1727   -1.6259 H   0  0  0  0  0  0  0  0  0  0  0  0
   -3.0082   -0.9756    0.5133 H   0  0  0  0  0  0  0  0  0  0  0  0
   -2.8399    0.6258    1.3279 H   0  0  0  0  0  0  0  0  0  0  0  0
   -1.1818   -0.3495   -1.0957 H   0  0  0  0  0  0  0  0  0  0  0  0
   -1.0120    1.2523   -0.2796 H   0  0  0  0  0  0  0  0  0  0  0  0
   -0.4231    0.0898    1.8709 H   0  0  0  0  0  0  0  0  0  0  0  0
   -0.5898   -1.4996    1.0740 H   0  0  0  0  0  0  0  0  0  0  0  0
    1.4678    1.5575    1.3961 H   0  0  0  0  0  0  0  0  0  0  0  0
    3.7851    1.7701    0.5810 H   0  0  0  0  0  0  0  0  0  0  0  0
    4.7593    0.0252   -0.8827 H   0  0  0  0  0  0  0  0  0  0  0  0
    3.4095   -1.9384   -1.5417 H   0  0  0  0  0  0  0  0  0  0  0  0
  1  2  1  0
  2  3  1  0
  3  4  1  0
  4  5  1  0
  5  6  2  0
  6  7  1  0
  7  8  2  0
  8  9  1  0
  9 10  2  0
 10 11  1  0
 10  5  1  0
  1 12  1  0
  1 13  1  0
  1 14  1  0
  2 15  1  0
  2 16  1  0
  3 17  1  0
  3 18  1  0
  4 19  1  0
  4 20  1  0
  6 21  1  0
  7 22  1  0
  8 23  1  0
  9 24  1  0
M  RAD  1  11   3
M  END
$$$$
