
     RDKit          3D

 24 24  0  0  0  0  0  0  0  0999 V2000
   -3.6692    0.9396    0.4609 C   0  0  0  0  0  0  0  0  0  0  0  0
   -2.7535   -0.1712   -0.0449 C   0  0  0  0  0  0  0  0  0  0  0  0
   -1.2780    0.2056    0.1288 C   0  0  0  0  0  0  0  0  0  0  0  0
   -0.3609   -0.9118   -0.3804 C   0  0  0  0  0  0  0  0  0  0  0  0
    1.0890   -0.5302   -0.2065 C   0  0  0  0  0  0  0  0  0  0  0  0
    1.7610    0.1292   -1.2506 C   0  0  0  0  0  0  0  0  0  0  0  0
    3.0947    0.5183   -1.0999 C   0  0  0  0  0  0  0  0  0  0  0  0
    3.7677    0.2626    0.0964 C   0  0  0  0  0  0  0  0  0  0  0  0
    3.1073   -0.3785    1.1472 C   0  0  0  0  0  0  0  0  0  0  0  0
    1.7709   -0.7719    1.0057 C   0  0  0  0  0  0  0  0  0  0  0  0
    1.1151   -1.4108    2.0989 N   0  0  0  0  0  1  0  0  0  0  0  0
   -4.7292    0.6394    0.3225 H   0  0  0  0  0  0  0  0  0  0  0  0
   -3.4906    1.1248    1.5416 H   0  0  0  0  0  0  0  0  0  0  0  0
   -3.4885    1.8772   -0.1070 H   0  0  0  0  0  0  0  0  0  0  0  0
   -2.9699   -0.3537   -1.1202 H   0  0  0  0  0  0  0  0  0  0  0  0
   -2.9717   -1.1028    0.5215 H   0  0  0  0  0  0  0  0  0  0  0  0
   -1.0703    0.3915    1.2058 H   0  0  0  0  0  0  0  0  0  0  0  0
   -1.0671    1.1399   -0.4375 H   0  0  0  0  0  0  0  0  0  0  0  0
   -0.5753   -1.8563    0.1653 H   0  0  0  0  0  0  0  0  0  0  0  0
   -0.5730   -1.1057   -1.4551 H   0  0  0  0  0  0  0  0  0  0  0  0
    1.2509    0.3435   -2.1818 H   0  0  0  0  0  0  0  0  0  0  0  0
    3.6059    1.0215   -1.9104 H   0  0  0  0  0  0  0  0  0  0  0  0
    4.8003    0.5660    0.2114 H   0  0  0  0  0  0  0  0  0  0  0  0
    3.6342   -0.5662    2.0744 H   0  0  0  0  0  0  0  0  0  0  0  0
  1  2  1  0
  2  3  1  0
  3  4  1  0
  4  5  1  0
  5  6  2  0
  6  7  1  0
  7  8  2  0
  8  9  1  0
  9 10  2  0
 10 11  1  0
 10  5  1  0
  1 12  1  0
  1 13  1  0
  1 14  1  0
  2 15  1  0
  2 16  1  0
  3 17  1  0
  3 18  1  0
  4 19  1  0
  4 20  1  0
  6 21  1  0
  7 22  1  0
  8 23  1  0
  9 24  1  0
M  RAD  1  11   3
M  END
$$$$
