
     RDKit          3D

 24 24  0  0  0  0  0  0  0  0999 V2000
   -2.8977   -0.4084    0.9908 C   0  0  0  0  0  0  0  0  0  0  0  0
   -2.0264    0.6347    0.2916 C   0  0  0  0  0  0  0  0  0  0  0  0
   -1.5286    0.1648   -1.0861 C   0  0  0  0  0  0  0  0  0  0  0  0
   -0.4342   -0.9151   -1.0212 C   0  0  0  0  0  0  0  0  0  0  0  0
    0.8574   -0.3855   -0.4382 C   0  0  0  0  0  0  0  0  0  0  0  0
    1.6752    0.4437   -1.2265 C   0  0  0  0  0  0  0  0  0  0  0  0
    2.8651    0.9639   -0.7110 C   0  0  0  0  0  0  0  0  0  0  0  0
    3.2513    0.6645    0.5964 C   0  0  0  0  0  0  0  0  0  0  0  0
    2.4485   -0.1560    1.3919 C   0  0  0  0  0  0  0  0  0  0  0  0
    1.2543   -0.6826    0.8848 C   0  0  0  0  0  0  0  0  0  0  0  0
    0.4562   -1.5159    1.7220 N   0  0  0  0  0  1  0  0  0  0  0  0
   -3.7559   -0.6921    0.3453 H   0  0  0  0  0  0  0  0  0  0  0  0
   -3.2940    0.0171    1.9367 H   0  0  0  0  0  0  0  0  0  0  0  0
   -2.3099   -1.3149    1.2394 H   0  0  0  0  0  0  0  0  0  0  0  0
   -1.1717    0.9097    0.9452 H   0  0  0  0  0  0  0  0  0  0  0  0
   -2.6377    1.5516    0.1468 H   0  0  0  0  0  0  0  0  0  0  0  0
   -2.3876   -0.2268   -1.6737 H   0  0  0  0  0  0  0  0  0  0  0  0
   -1.1370    1.0446   -1.6418 H   0  0  0  0  0  0  0  0  0  0  0  0
   -0.2337   -1.2685   -2.0561 H   0  0  0  0  0  0  0  0  0  0  0  0
   -0.7990   -1.8046   -0.4678 H   0  0  0  0  0  0  0  0  0  0  0  0
    1.3891    0.6881   -2.2422 H   0  0  0  0  0  0  0  0  0  0  0  0
    3.4878    1.6009   -1.3258 H   0  0  0  0  0  0  0  0  0  0  0  0
    4.1731    1.0690    0.9941 H   0  0  0  0  0  0  0  0  0  0  0  0
    2.7554   -0.3824    2.4054 H   0  0  0  0  0  0  0  0  0  0  0  0
  1  2  1  0
  2  3  1  0
  3  4  1  0
  4  5  1  0
  5  6  2  0
  6  7  1  0
  7  8  2  0
  8  9  1  0
  9 10  2  0
 10 11  1  0
 10  5  1  0
  1 12  1  0
  1 13  1  0
  1 14  1  0
  2 15  1  0
  2 16  1  0
  3 17  1  0
  3 18  1  0
  4 19  1  0
  4 20  1  0
  6 21  1  0
  7 22  1  0
  8 23  1  0
  9 24  1  0
M  RAD  1  11   3
M  END
$$$$
