
     RDKit          3D

 24 24  0  0  0  0  0  0  0  0999 V2000
   -2.1335    0.8995   -0.3853 C   0  0  0  0  0  0  0  0  0  0  0  0
   -2.2387   -0.3801    0.4448 C   0  0  0  0  0  0  0  0  0  0  0  0
   -1.4092   -1.5385   -0.1448 C   0  0  0  0  0  0  0  0  0  0  0  0
   -0.0152   -1.6842    0.4896 C   0  0  0  0  0  0  0  0  0  0  0  0
    0.8936   -0.5190    0.1775 C   0  0  0  0  0  0  0  0  0  0  0  0
    1.1155    0.4700    1.1527 C   0  0  0  0  0  0  0  0  0  0  0  0
    1.9334    1.5681    0.8738 C   0  0  0  0  0  0  0  0  0  0  0  0
    2.5378    1.6909   -0.3786 C   0  0  0  0  0  0  0  0  0  0  0  0
    2.3269    0.7154   -1.3557 C   0  0  0  0  0  0  0  0  0  0  0  0
    1.5088   -0.3884   -1.0862 C   0  0  0  0  0  0  0  0  0  0  0  0
    1.3122   -1.3716   -2.1000 N   0  0  0  0  0  1  0  0  0  0  0  0
   -2.4928    0.7174   -1.4204 H   0  0  0  0  0  0  0  0  0  0  0  0
   -2.7656    1.6894    0.0722 H   0  0  0  0  0  0  0  0  0  0  0  0
   -1.0895    1.2683   -0.4239 H   0  0  0  0  0  0  0  0  0  0  0  0
   -3.3086   -0.6822    0.4638 H   0  0  0  0  0  0  0  0  0  0  0  0
   -1.9393   -0.1709    1.4946 H   0  0  0  0  0  0  0  0  0  0  0  0
   -1.9577   -2.4861    0.0493 H   0  0  0  0  0  0  0  0  0  0  0  0
   -1.3248   -1.4464   -1.2495 H   0  0  0  0  0  0  0  0  0  0  0  0
    0.4530   -2.6194    0.1131 H   0  0  0  0  0  0  0  0  0  0  0  0
   -0.1211   -1.8151    1.5892 H   0  0  0  0  0  0  0  0  0  0  0  0
    0.6482    0.3958    2.1268 H   0  0  0  0  0  0  0  0  0  0  0  0
    2.0964    2.3261    1.6290 H   0  0  0  0  0  0  0  0  0  0  0  0
    3.1703    2.5428   -0.5925 H   0  0  0  0  0  0  0  0  0  0  0  0
    2.8000    0.8180   -2.3243 H   0  0  0  0  0  0  0  0  0  0  0  0
  1  2  1  0
  2  3  1  0
  3  4  1  0
  4  5  1  0
  5  6  2  0
  6  7  1  0
  7  8  2  0
  8  9  1  0
  9 10  2  0
 10 11  1  0
 10  5  1  0
  1 12  1  0
  1 13  1  0
  1 14  1  0
  2 15  1  0
  2 16  1  0
  3 17  1  0
  3 18  1  0
  4 19  1  0
  4 20  1  0
  6 21  1  0
  7 22  1  0
  8 23  1  0
  9 24  1  0
M  RAD  1  11   3
M  END
$$$$
