
     RDKit          3D

 24 24  0  0  0  0  0  0  0  0999 V2000
    2.9627   -0.0015    0.8758 C   0  0  0  0  0  0  0  0  0  0  0  0
    1.9677   -0.8460    0.0804 C   0  0  0  0  0  0  0  0  0  0  0  0
    1.4587   -0.1302   -1.1827 C   0  0  0  0  0  0  0  0  0  0  0  0
    0.4752    1.0184   -0.8976 C   0  0  0  0  0  0  0  0  0  0  0  0
   -0.8348    0.5210   -0.3276 C   0  0  0  0  0  0  0  0  0  0  0  0
   -1.7602   -0.1041   -1.1825 C   0  0  0  0  0  0  0  0  0  0  0  0
   -2.9711   -0.5909   -0.6834 C   0  0  0  0  0  0  0  0  0  0  0  0
   -3.2713   -0.4614    0.6735 C   0  0  0  0  0  0  0  0  0  0  0  0
   -2.3615    0.1553    1.5350 C   0  0  0  0  0  0  0  0  0  0  0  0
   -1.1454    0.6468    1.0449 C   0  0  0  0  0  0  0  0  0  0  0  0
   -0.2371    1.2702    1.9499 N   0  0  0  0  0  1  0  0  0  0  0  0
    3.8158    0.3012    0.2321 H   0  0  0  0  0  0  0  0  0  0  0  0
    2.4745    0.9045    1.2882 H   0  0  0  0  0  0  0  0  0  0  0  0
    3.3568   -0.5988    1.7248 H   0  0  0  0  0  0  0  0  0  0  0  0
    2.4828   -1.7800   -0.2324 H   0  0  0  0  0  0  0  0  0  0  0  0
    1.1194   -1.1417    0.7331 H   0  0  0  0  0  0  0  0  0  0  0  0
    2.3251    0.2697   -1.7533 H   0  0  0  0  0  0  0  0  0  0  0  0
    0.9623   -0.8777   -1.8393 H   0  0  0  0  0  0  0  0  0  0  0  0
    0.2653    1.5413   -1.8561 H   0  0  0  0  0  0  0  0  0  0  0  0
    0.9457    1.7781   -0.2404 H   0  0  0  0  0  0  0  0  0  0  0  0
   -1.5419   -0.2151   -2.2375 H   0  0  0  0  0  0  0  0  0  0  0  0
   -3.6768   -1.0702   -1.3496 H   0  0  0  0  0  0  0  0  0  0  0  0
   -4.2096   -0.8397    1.0582 H   0  0  0  0  0  0  0  0  0  0  0  0
   -2.6022    0.2508    2.5865 H   0  0  0  0  0  0  0  0  0  0  0  0
  1  2  1  0
  2  3  1  0
  3  4  1  0
  4  5  1  0
  5  6  2  0
  6  7  1  0
  7  8  2  0
  8  9  1  0
  9 10  2  0
 10 11  1  0
 10  5  1  0
  1 12  1  0
  1 13  1  0
  1 14  1  0
  2 15  1  0
  2 16  1  0
  3 17  1  0
  3 18  1  0
  4 19  1  0
  4 20  1  0
  6 21  1  0
  7 22  1  0
  8 23  1  0
  9 24  1  0
M  RAD  1  11   3
M  END
$$$$
