
     RDKit          3D

 24 24  0  0  0  0  0  0  0  0999 V2000
    2.5513    1.4101    1.0234 C   0  0  0  0  0  0  0  0  0  0  0  0
    2.0538    0.0246    0.6125 C   0  0  0  0  0  0  0  0  0  0  0  0
    1.6662   -0.0498   -0.8745 C   0  0  0  0  0  0  0  0  0  0  0  0
    0.3553    0.6799   -1.2166 C   0  0  0  0  0  0  0  0  0  0  0  0
   -0.8503    0.0113   -0.5937 C   0  0  0  0  0  0  0  0  0  0  0  0
   -1.3326   -1.1868   -1.1503 C   0  0  0  0  0  0  0  0  0  0  0  0
   -2.4327   -1.8386   -0.5872 C   0  0  0  0  0  0  0  0  0  0  0  0
   -3.0625   -1.3038    0.5378 C   0  0  0  0  0  0  0  0  0  0  0  0
   -2.5938   -0.1157    1.1026 C   0  0  0  0  0  0  0  0  0  0  0  0
   -1.4922    0.5454    0.5459 C   0  0  0  0  0  0  0  0  0  0  0  0
   -1.0369    1.7557    1.1463 N   0  0  0  0  0  1  0  0  0  0  0  0
    1.7412    2.1628    0.9440 H   0  0  0  0  0  0  0  0  0  0  0  0
    2.8936    1.3803    2.0793 H   0  0  0  0  0  0  0  0  0  0  0  0
    3.4055    1.7204    0.3848 H   0  0  0  0  0  0  0  0  0  0  0  0
    1.2000   -0.2745    1.2564 H   0  0  0  0  0  0  0  0  0  0  0  0
    2.8740   -0.7031    0.7954 H   0  0  0  0  0  0  0  0  0  0  0  0
    1.5721   -1.1191   -1.1644 H   0  0  0  0  0  0  0  0  0  0  0  0
    2.4879    0.3764   -1.4905 H   0  0  0  0  0  0  0  0  0  0  0  0
    0.4218    1.7504   -0.9338 H   0  0  0  0  0  0  0  0  0  0  0  0
    0.2309    0.6699   -2.3215 H   0  0  0  0  0  0  0  0  0  0  0  0
   -0.8540   -1.6169   -2.0216 H   0  0  0  0  0  0  0  0  0  0  0  0
   -2.7965   -2.7601   -1.0231 H   0  0  0  0  0  0  0  0  0  0  0  0
   -3.9143   -1.8105    0.9728 H   0  0  0  0  0  0  0  0  0  0  0  0
   -3.0879    0.2917    1.9759 H   0  0  0  0  0  0  0  0  0  0  0  0
  1  2  1  0
  2  3  1  0
  3  4  1  0
  4  5  1  0
  5  6  2  0
  6  7  1  0
  7  8  2  0
  8  9  1  0
  9 10  2  0
 10 11  1  0
 10  5  1  0
  1 12  1  0
  1 13  1  0
  1 14  1  0
  2 15  1  0
  2 16  1  0
  3 17  1  0
  3 18  1  0
  4 19  1  0
  4 20  1  0
  6 21  1  0
  7 22  1  0
  8 23  1  0
  9 24  1  0
M  RAD  1  11   3
M  END
$$$$
