
     RDKit          3D

 24 24  0  0  0  0  0  0  0  0999 V2000
   -0.4487    1.1504    1.9901 C   0  0  0  0  0  0  0  0  0  0  0  0
   -1.7398    0.5495    1.4337 C   0  0  0  0  0  0  0  0  0  0  0  0
   -1.5744   -0.9253    1.0151 C   0  0  0  0  0  0  0  0  0  0  0  0
   -1.2804   -1.1119   -0.4835 C   0  0  0  0  0  0  0  0  0  0  0  0
    0.0692   -0.5668   -0.8865 C   0  0  0  0  0  0  0  0  0  0  0  0
    0.1491    0.6718   -1.5482 C   0  0  0  0  0  0  0  0  0  0  0  0
    1.3904    1.2039   -1.9069 C   0  0  0  0  0  0  0  0  0  0  0  0
    2.5631    0.5070   -1.6102 C   0  0  0  0  0  0  0  0  0  0  0  0
    2.4980   -0.7247   -0.9546 C   0  0  0  0  0  0  0  0  0  0  0  0
    1.2592   -1.2660   -0.5907 C   0  0  0  0  0  0  0  0  0  0  0  0
    1.2202   -2.5264    0.0751 N   0  0  0  0  0  1  0  0  0  0  0  0
   -0.6323    2.2023    2.2943 H   0  0  0  0  0  0  0  0  0  0  0  0
   -0.1119    0.5802    2.8819 H   0  0  0  0  0  0  0  0  0  0  0  0
    0.3574    1.1436    1.2302 H   0  0  0  0  0  0  0  0  0  0  0  0
   -2.5104    0.6083    2.2330 H   0  0  0  0  0  0  0  0  0  0  0  0
   -2.1033    1.1658    0.5830 H   0  0  0  0  0  0  0  0  0  0  0  0
   -2.5304   -1.4515    1.2290 H   0  0  0  0  0  0  0  0  0  0  0  0
   -0.7960   -1.4290    1.6286 H   0  0  0  0  0  0  0  0  0  0  0  0
   -1.3189   -2.1966   -0.7230 H   0  0  0  0  0  0  0  0  0  0  0  0
   -2.0894   -0.6367   -1.0810 H   0  0  0  0  0  0  0  0  0  0  0  0
   -0.7494    1.2304   -1.7789 H   0  0  0  0  0  0  0  0  0  0  0  0
    1.4430    2.1590   -2.4132 H   0  0  0  0  0  0  0  0  0  0  0  0
    3.5235    0.9215   -1.8883 H   0  0  0  0  0  0  0  0  0  0  0  0
    3.4124   -1.2589   -0.7288 H   0  0  0  0  0  0  0  0  0  0  0  0
  1  2  1  0
  2  3  1  0
  3  4  1  0
  4  5  1  0
  5  6  2  0
  6  7  1  0
  7  8  2  0
  8  9  1  0
  9 10  2  0
 10 11  1  0
 10  5  1  0
  1 12  1  0
  1 13  1  0
  1 14  1  0
  2 15  1  0
  2 16  1  0
  3 17  1  0
  3 18  1  0
  4 19  1  0
  4 20  1  0
  6 21  1  0
  7 22  1  0
  8 23  1  0
  9 24  1  0
M  RAD  1  11   3
M  END
$$$$
