
     RDKit          3D

 24 24  0  0  0  0  0  0  0  0999 V2000
   -3.0183    0.3341    0.5923 C   0  0  0  0  0  0  0  0  0  0  0  0
   -2.0249    0.3785   -0.5683 C   0  0  0  0  0  0  0  0  0  0  0  0
   -1.3586   -0.9830   -0.8314 C   0  0  0  0  0  0  0  0  0  0  0  0
   -0.3202   -1.3870    0.2300 C   0  0  0  0  0  0  0  0  0  0  0  0
    0.8960   -0.4875    0.2111 C   0  0  0  0  0  0  0  0  0  0  0  0
    1.8417   -0.6362   -0.8192 C   0  0  0  0  0  0  0  0  0  0  0  0
    2.9662    0.1911   -0.8753 C   0  0  0  0  0  0  0  0  0  0  0  0
    3.1589    1.1766    0.0941 C   0  0  0  0  0  0  0  0  0  0  0  0
    2.2276    1.3374    1.1223 C   0  0  0  0  0  0  0  0  0  0  0  0
    1.0974    0.5133    1.1876 C   0  0  0  0  0  0  0  0  0  0  0  0
    0.1644    0.7031    2.2488 N   0  0  0  0  0  1  0  0  0  0  0  0
   -2.5009    0.1260    1.5504 H   0  0  0  0  0  0  0  0  0  0  0  0
   -3.5264    1.3175    0.6800 H   0  0  0  0  0  0  0  0  0  0  0  0
   -3.7887   -0.4457    0.4134 H   0  0  0  0  0  0  0  0  0  0  0  0
   -2.5795    0.6774   -1.4840 H   0  0  0  0  0  0  0  0  0  0  0  0
   -1.2594    1.1602   -0.3783 H   0  0  0  0  0  0  0  0  0  0  0  0
   -0.8652   -0.9509   -1.8273 H   0  0  0  0  0  0  0  0  0  0  0  0
   -2.1413   -1.7706   -0.8887 H   0  0  0  0  0  0  0  0  0  0  0  0
   -0.7871   -1.4234    1.2355 H   0  0  0  0  0  0  0  0  0  0  0  0
    0.0087   -2.4272    0.0153 H   0  0  0  0  0  0  0  0  0  0  0  0
    1.7061   -1.3943   -1.5809 H   0  0  0  0  0  0  0  0  0  0  0  0
    3.6884    0.0685   -1.6721 H   0  0  0  0  0  0  0  0  0  0  0  0
    4.0304    1.8169    0.0486 H   0  0  0  0  0  0  0  0  0  0  0  0
    2.3845    2.1051    1.8697 H   0  0  0  0  0  0  0  0  0  0  0  0
  1  2  1  0
  2  3  1  0
  3  4  1  0
  4  5  1  0
  5  6  2  0
  6  7  1  0
  7  8  2  0
  8  9  1  0
  9 10  2  0
 10 11  1  0
 10  5  1  0
  1 12  1  0
  1 13  1  0
  1 14  1  0
  2 15  1  0
  2 16  1  0
  3 17  1  0
  3 18  1  0
  4 19  1  0
  4 20  1  0
  6 21  1  0
  7 22  1  0
  8 23  1  0
  9 24  1  0
M  RAD  1  11   3
M  END
$$$$
