
     RDKit          3D

 24 24  0  0  0  0  0  0  0  0999 V2000
    2.9747    0.1565    0.8614 C   0  0  0  0  0  0  0  0  0  0  0  0
    2.0385   -0.6582   -0.0307 C   0  0  0  0  0  0  0  0  0  0  0  0
    1.4293    0.1767   -1.1704 C   0  0  0  0  0  0  0  0  0  0  0  0
    0.3533    1.1751   -0.7085 C   0  0  0  0  0  0  0  0  0  0  0  0
   -0.8883    0.4803   -0.1947 C   0  0  0  0  0  0  0  0  0  0  0  0
   -1.7770   -0.1032   -1.1154 C   0  0  0  0  0  0  0  0  0  0  0  0
   -2.9230   -0.7682   -0.6719 C   0  0  0  0  0  0  0  0  0  0  0  0
   -3.1941   -0.8602    0.6941 C   0  0  0  0  0  0  0  0  0  0  0  0
   -2.3200   -0.2873    1.6204 C   0  0  0  0  0  0  0  0  0  0  0  0
   -1.1689    0.3815    1.1864 C   0  0  0  0  0  0  0  0  0  0  0  0
   -0.2957    0.9547    2.1566 N   0  0  0  0  0  1  0  0  0  0  0  0
    2.4176    0.9449    1.4066 H   0  0  0  0  0  0  0  0  0  0  0  0
    3.7772    0.6265    0.2541 H   0  0  0  0  0  0  0  0  0  0  0  0
    3.4464   -0.5143    1.6099 H   0  0  0  0  0  0  0  0  0  0  0  0
    1.2403   -1.1220    0.5864 H   0  0  0  0  0  0  0  0  0  0  0  0
    2.6278   -1.4857   -0.4819 H   0  0  0  0  0  0  0  0  0  0  0  0
    2.2384    0.7335   -1.6916 H   0  0  0  0  0  0  0  0  0  0  0  0
    0.9847   -0.5146   -1.9191 H   0  0  0  0  0  0  0  0  0  0  0  0
    0.0685    1.8055   -1.5790 H   0  0  0  0  0  0  0  0  0  0  0  0
    0.7712    1.8759    0.0430 H   0  0  0  0  0  0  0  0  0  0  0  0
   -1.5803   -0.0433   -2.1788 H   0  0  0  0  0  0  0  0  0  0  0  0
   -3.6009   -1.2137   -1.3885 H   0  0  0  0  0  0  0  0  0  0  0  0
   -4.0821   -1.3763    1.0357 H   0  0  0  0  0  0  0  0  0  0  0  0
   -2.5377   -0.3641    2.6784 H   0  0  0  0  0  0  0  0  0  0  0  0
  1  2  1  0
  2  3  1  0
  3  4  1  0
  4  5  1  0
  5  6  2  0
  6  7  1  0
  7  8  2  0
  8  9  1  0
  9 10  2  0
 10 11  1  0
 10  5  1  0
  1 12  1  0
  1 13  1  0
  1 14  1  0
  2 15  1  0
  2 16  1  0
  3 17  1  0
  3 18  1  0
  4 19  1  0
  4 20  1  0
  6 21  1  0
  7 22  1  0
  8 23  1  0
  9 24  1  0
M  RAD  1  11   3
M  END
$$$$
