
     RDKit          3D

 31 32  0  0  0  0  0  0  0  0999 V2000
   -1.0869    0.2519   -2.6783 N   0  0  0  0  0  1  0  0  0  0  0  0
   -1.8410    0.2178   -1.4683 C   0  0  0  0  0  0  0  0  0  0  0  0
   -3.2143   -0.0468   -1.5285 C   0  0  0  0  0  0  0  0  0  0  0  0
   -3.9831   -0.1153   -0.3544 C   0  0  0  0  0  0  0  0  0  0  0  0
   -5.4707   -0.3526   -0.4289 C   0  0  0  0  0  0  0  0  0  0  0  0
   -6.1182    0.8604   -0.5711 F   0  0  0  0  0  0  0  0  0  0  0  0
   -5.7831   -1.1599   -1.5090 F   0  0  0  0  0  0  0  0  0  0  0  0
   -5.9258   -0.9745    0.7210 F   0  0  0  0  0  0  0  0  0  0  0  0
   -3.3621    0.1272    0.8817 C   0  0  0  0  0  0  0  0  0  0  0  0
   -1.9921    0.3918    0.9466 C   0  0  0  0  0  0  0  0  0  0  0  0
   -1.2198    0.4485   -0.2243 C   0  0  0  0  0  0  0  0  0  0  0  0
    0.2642    0.7036   -0.1238 C   0  0  0  0  0  0  0  0  0  0  0  0
    1.0342   -0.6180   -0.0440 C   0  0  0  0  0  0  0  0  0  0  0  0
    2.5143   -0.3630    0.0522 C   0  0  0  0  0  0  0  0  0  0  0  0
    3.2884   -0.2349   -1.1134 C   0  0  0  0  0  0  0  0  0  0  0  0
    4.6576    0.0347   -1.0230 C   0  0  0  0  0  0  0  0  0  0  0  0
    5.2604    0.1878    0.2286 C   0  0  0  0  0  0  0  0  0  0  0  0
    4.4942    0.0757    1.3921 C   0  0  0  0  0  0  0  0  0  0  0  0
    3.1246   -0.1938    1.3063 C   0  0  0  0  0  0  0  0  0  0  0  0
   -3.6795   -0.2007   -2.4946 H   0  0  0  0  0  0  0  0  0  0  0  0
   -3.9360    0.1109    1.7997 H   0  0  0  0  0  0  0  0  0  0  0  0
   -1.5328    0.5570    1.9136 H   0  0  0  0  0  0  0  0  0  0  0  0
    0.6112    1.2921   -1.0011 H   0  0  0  0  0  0  0  0  0  0  0  0
    0.4823    1.3153    0.7797 H   0  0  0  0  0  0  0  0  0  0  0  0
    0.8176   -1.2351   -0.9438 H   0  0  0  0  0  0  0  0  0  0  0  0
    0.6933   -1.1967    0.8429 H   0  0  0  0  0  0  0  0  0  0  0  0
    2.8314   -0.3420   -2.0894 H   0  0  0  0  0  0  0  0  0  0  0  0
    5.2507    0.1284   -1.9236 H   0  0  0  0  0  0  0  0  0  0  0  0
    6.3200    0.3978    0.2967 H   0  0  0  0  0  0  0  0  0  0  0  0
    4.9608    0.2012    2.3606 H   0  0  0  0  0  0  0  0  0  0  0  0
    2.5402   -0.2689    2.2150 H   0  0  0  0  0  0  0  0  0  0  0  0
  1  2  1  0
  2  3  1  0
  3  4  2  0
  4  5  1  0
  5  6  1  0
  5  7  1  0
  5  8  1  0
  4  9  1  0
  9 10  2  0
 10 11  1  0
 11 12  1  0
 12 13  1  0
 13 14  1  0
 14 15  2  0
 15 16  1  0
 16 17  2  0
 17 18  1  0
 18 19  2  0
 11  2  2  0
 19 14  1  0
  3 20  1  0
  9 21  1  0
 10 22  1  0
 12 23  1  0
 12 24  1  0
 13 25  1  0
 13 26  1  0
 15 27  1  0
 16 28  1  0
 17 29  1  0
 18 30  1  0
 19 31  1  0
M  RAD  1   1   3
M  END
$$$$
