
     RDKit          3D

 31 32  0  0  0  0  0  0  0  0999 V2000
    2.1505   -2.2240   -1.5713 N   0  0  0  0  0  1  0  0  0  0  0  0
    1.9874   -1.2124   -0.5795 C   0  0  0  0  0  0  0  0  0  0  0  0
    2.9465   -0.1983   -0.4761 C   0  0  0  0  0  0  0  0  0  0  0  0
    2.8179    0.8142    0.4896 C   0  0  0  0  0  0  0  0  0  0  0  0
    3.8250    1.9345    0.5597 C   0  0  0  0  0  0  0  0  0  0  0  0
    3.9066    2.4393    1.8460 F   0  0  0  0  0  0  0  0  0  0  0  0
    3.4389    2.9474   -0.2980 F   0  0  0  0  0  0  0  0  0  0  0  0
    5.0815    1.4857    0.1911 F   0  0  0  0  0  0  0  0  0  0  0  0
    1.6874    0.8215    1.3223 C   0  0  0  0  0  0  0  0  0  0  0  0
    0.7289   -0.1894    1.2243 C   0  0  0  0  0  0  0  0  0  0  0  0
    0.8719   -1.2203    0.2816 C   0  0  0  0  0  0  0  0  0  0  0  0
   -0.2064   -2.2728    0.1597 C   0  0  0  0  0  0  0  0  0  0  0  0
   -1.1965   -1.9501   -0.9687 C   0  0  0  0  0  0  0  0  0  0  0  0
   -1.9562   -0.6760   -0.6997 C   0  0  0  0  0  0  0  0  0  0  0  0
   -3.0581   -0.6801    0.1716 C   0  0  0  0  0  0  0  0  0  0  0  0
   -3.7344    0.5101    0.4570 C   0  0  0  0  0  0  0  0  0  0  0  0
   -3.3116    1.7115   -0.1183 C   0  0  0  0  0  0  0  0  0  0  0  0
   -2.2106    1.7253   -0.9790 C   0  0  0  0  0  0  0  0  0  0  0  0
   -1.5326    0.5374   -1.2685 C   0  0  0  0  0  0  0  0  0  0  0  0
    3.7897   -0.1989   -1.1563 H   0  0  0  0  0  0  0  0  0  0  0  0
    1.5405    1.6135    2.0459 H   0  0  0  0  0  0  0  0  0  0  0  0
   -0.1367   -0.1586    1.8747 H   0  0  0  0  0  0  0  0  0  0  0  0
   -0.7580   -2.3765    1.1202 H   0  0  0  0  0  0  0  0  0  0  0  0
    0.2592   -3.2619   -0.0396 H   0  0  0  0  0  0  0  0  0  0  0  0
   -0.6557   -1.8821   -1.9379 H   0  0  0  0  0  0  0  0  0  0  0  0
   -1.9165   -2.7918   -1.0646 H   0  0  0  0  0  0  0  0  0  0  0  0
   -3.3882   -1.6028    0.6325 H   0  0  0  0  0  0  0  0  0  0  0  0
   -4.5836    0.5017    1.1280 H   0  0  0  0  0  0  0  0  0  0  0  0
   -3.8344    2.6323    0.1059 H   0  0  0  0  0  0  0  0  0  0  0  0
   -1.8796    2.6574   -1.4185 H   0  0  0  0  0  0  0  0  0  0  0  0
   -0.6725    0.5645   -1.9261 H   0  0  0  0  0  0  0  0  0  0  0  0
  1  2  1  0
  2  3  1  0
  3  4  2  0
  4  5  1  0
  5  6  1  0
  5  7  1  0
  5  8  1  0
  4  9  1  0
  9 10  2  0
 10 11  1  0
 11 12  1  0
 12 13  1  0
 13 14  1  0
 14 15  2  0
 15 16  1  0
 16 17  2  0
 17 18  1  0
 18 19  2  0
 11  2  2  0
 19 14  1  0
  3 20  1  0
  9 21  1  0
 10 22  1  0
 12 23  1  0
 12 24  1  0
 13 25  1  0
 13 26  1  0
 15 27  1  0
 16 28  1  0
 17 29  1  0
 18 30  1  0
 19 31  1  0
M  RAD  1   1   3
M  END
$$$$
