
     RDKit          3D

 31 32  0  0  0  0  0  0  0  0999 V2000
   -1.3243   -1.4181    2.6109 N   0  0  0  0  0  1  0  0  0  0  0  0
   -1.5743   -0.9209    1.2979 C   0  0  0  0  0  0  0  0  0  0  0  0
   -2.6703   -0.0765    1.0860 C   0  0  0  0  0  0  0  0  0  0  0  0
   -2.9467    0.4315   -0.1945 C   0  0  0  0  0  0  0  0  0  0  0  0
   -4.0961    1.3846   -0.4058 C   0  0  0  0  0  0  0  0  0  0  0  0
   -4.5781    1.2908   -1.7000 F   0  0  0  0  0  0  0  0  0  0  0  0
   -3.6623    2.6775   -0.1794 F   0  0  0  0  0  0  0  0  0  0  0  0
   -5.1343    1.0983    0.4638 F   0  0  0  0  0  0  0  0  0  0  0  0
   -2.0801    0.1170   -1.2536 C   0  0  0  0  0  0  0  0  0  0  0  0
   -0.9866   -0.7267   -1.0475 C   0  0  0  0  0  0  0  0  0  0  0  0
   -0.7270   -1.2616    0.2246 C   0  0  0  0  0  0  0  0  0  0  0  0
    0.4933   -2.1293    0.4328 C   0  0  0  0  0  0  0  0  0  0  0  0
    1.6775   -1.3273    0.9918 C   0  0  0  0  0  0  0  0  0  0  0  0
    2.1417   -0.2672    0.0256 C   0  0  0  0  0  0  0  0  0  0  0  0
    1.6981    1.0597    0.1598 C   0  0  0  0  0  0  0  0  0  0  0  0
    2.0921    2.0307   -0.7657 C   0  0  0  0  0  0  0  0  0  0  0  0
    2.9265    1.6844   -1.8320 C   0  0  0  0  0  0  0  0  0  0  0  0
    3.3658    0.3655   -1.9764 C   0  0  0  0  0  0  0  0  0  0  0  0
    2.9728   -0.6092   -1.0541 C   0  0  0  0  0  0  0  0  0  0  0  0
   -3.3022    0.1875    1.9254 H   0  0  0  0  0  0  0  0  0  0  0  0
   -2.2441    0.5294   -2.2413 H   0  0  0  0  0  0  0  0  0  0  0  0
   -0.3302   -0.9502   -1.8796 H   0  0  0  0  0  0  0  0  0  0  0  0
    0.7913   -2.6157   -0.5222 H   0  0  0  0  0  0  0  0  0  0  0  0
    0.2492   -2.9527    1.1381 H   0  0  0  0  0  0  0  0  0  0  0  0
    2.5170   -2.0261    1.1989 H   0  0  0  0  0  0  0  0  0  0  0  0
    1.3974   -0.8691    1.9655 H   0  0  0  0  0  0  0  0  0  0  0  0
    1.0400    1.3387    0.9734 H   0  0  0  0  0  0  0  0  0  0  0  0
    1.7468    3.0509   -0.6588 H   0  0  0  0  0  0  0  0  0  0  0  0
    3.2294    2.4370   -2.5484 H   0  0  0  0  0  0  0  0  0  0  0  0
    4.0073    0.0974   -2.8059 H   0  0  0  0  0  0  0  0  0  0  0  0
    3.3104   -1.6301   -1.1831 H   0  0  0  0  0  0  0  0  0  0  0  0
  1  2  1  0
  2  3  1  0
  3  4  2  0
  4  5  1  0
  5  6  1  0
  5  7  1  0
  5  8  1  0
  4  9  1  0
  9 10  2  0
 10 11  1  0
 11 12  1  0
 12 13  1  0
 13 14  1  0
 14 15  2  0
 15 16  1  0
 16 17  2  0
 17 18  1  0
 18 19  2  0
 11  2  2  0
 19 14  1  0
  3 20  1  0
  9 21  1  0
 10 22  1  0
 12 23  1  0
 12 24  1  0
 13 25  1  0
 13 26  1  0
 15 27  1  0
 16 28  1  0
 17 29  1  0
 18 30  1  0
 19 31  1  0
M  RAD  1   1   3
M  END
$$$$
