
     RDKit          3D

 31 32  0  0  0  0  0  0  0  0999 V2000
   -0.9888   -2.2241   -1.2438 N   0  0  0  0  0  1  0  0  0  0  0  0
   -1.7857   -1.2803   -0.5310 C   0  0  0  0  0  0  0  0  0  0  0  0
   -3.1628   -1.2281   -0.7764 C   0  0  0  0  0  0  0  0  0  0  0  0
   -3.9741   -0.2923   -0.1128 C   0  0  0  0  0  0  0  0  0  0  0  0
   -5.4643   -0.2733   -0.3452 C   0  0  0  0  0  0  0  0  0  0  0  0
   -6.0721   -1.1553    0.5284 F   0  0  0  0  0  0  0  0  0  0  0  0
   -5.7609   -0.6486   -1.6442 F   0  0  0  0  0  0  0  0  0  0  0  0
   -5.9768    0.9952   -0.1345 F   0  0  0  0  0  0  0  0  0  0  0  0
   -3.3905    0.5652    0.8339 C   0  0  0  0  0  0  0  0  0  0  0  0
   -2.0167    0.5167    1.0822 C   0  0  0  0  0  0  0  0  0  0  0  0
   -1.2025   -0.4093    0.4112 C   0  0  0  0  0  0  0  0  0  0  0  0
    0.2837   -0.4189    0.6736 C   0  0  0  0  0  0  0  0  0  0  0  0
    1.0131    0.4854   -0.3245 C   0  0  0  0  0  0  0  0  0  0  0  0
    2.4955    0.4722   -0.0650 C   0  0  0  0  0  0  0  0  0  0  0  0
    3.3132   -0.4931   -0.6762 C   0  0  0  0  0  0  0  0  0  0  0  0
    4.6854   -0.5248   -0.4085 C   0  0  0  0  0  0  0  0  0  0  0  0
    5.2481    0.3987    0.4769 C   0  0  0  0  0  0  0  0  0  0  0  0
    4.4387    1.3530    1.0995 C   0  0  0  0  0  0  0  0  0  0  0  0
    3.0660    1.3883    0.8347 C   0  0  0  0  0  0  0  0  0  0  0  0
   -3.5979   -1.9192   -1.4882 H   0  0  0  0  0  0  0  0  0  0  0  0
   -3.9966    1.2754    1.3822 H   0  0  0  0  0  0  0  0  0  0  0  0
   -1.5873    1.2012    1.8035 H   0  0  0  0  0  0  0  0  0  0  0  0
    0.4869   -0.0677    1.7097 H   0  0  0  0  0  0  0  0  0  0  0  0
    0.6776   -1.4563    0.6033 H   0  0  0  0  0  0  0  0  0  0  0  0
    0.6253    1.5248   -0.2405 H   0  0  0  0  0  0  0  0  0  0  0  0
    0.8110    0.1408   -1.3626 H   0  0  0  0  0  0  0  0  0  0  0  0
    2.8879   -1.2202   -1.3569 H   0  0  0  0  0  0  0  0  0  0  0  0
    5.3121   -1.2677   -0.8849 H   0  0  0  0  0  0  0  0  0  0  0  0
    6.3101    0.3720    0.6840 H   0  0  0  0  0  0  0  0  0  0  0  0
    4.8744    2.0634    1.7902 H   0  0  0  0  0  0  0  0  0  0  0  0
    2.4482    2.1266    1.3308 H   0  0  0  0  0  0  0  0  0  0  0  0
  1  2  1  0
  2  3  1  0
  3  4  2  0
  4  5  1  0
  5  6  1  0
  5  7  1  0
  5  8  1  0
  4  9  1  0
  9 10  2  0
 10 11  1  0
 11 12  1  0
 12 13  1  0
 13 14  1  0
 14 15  2  0
 15 16  1  0
 16 17  2  0
 17 18  1  0
 18 19  2  0
 11  2  2  0
 19 14  1  0
  3 20  1  0
  9 21  1  0
 10 22  1  0
 12 23  1  0
 12 24  1  0
 13 25  1  0
 13 26  1  0
 15 27  1  0
 16 28  1  0
 17 29  1  0
 18 30  1  0
 19 31  1  0
M  RAD  1   1   3
M  END
$$$$
