
     RDKit          3D

 31 32  0  0  0  0  0  0  0  0999 V2000
    2.0838   -2.4734    1.2208 N   0  0  0  0  0  1  0  0  0  0  0  0
    1.9609   -1.3083    0.4077 C   0  0  0  0  0  0  0  0  0  0  0  0
    2.9277   -0.3014    0.5089 C   0  0  0  0  0  0  0  0  0  0  0  0
    2.8383    0.8597   -0.2772 C   0  0  0  0  0  0  0  0  0  0  0  0
    3.8524    1.9653   -0.1238 C   0  0  0  0  0  0  0  0  0  0  0  0
    5.0929    1.4479    0.2072 F   0  0  0  0  0  0  0  0  0  0  0  0
    3.9823    2.6775   -1.3037 F   0  0  0  0  0  0  0  0  0  0  0  0
    3.4406    2.8244    0.8778 F   0  0  0  0  0  0  0  0  0  0  0  0
    1.7383    1.0182   -1.1354 C   0  0  0  0  0  0  0  0  0  0  0  0
    0.7723    0.0154   -1.2413 C   0  0  0  0  0  0  0  0  0  0  0  0
    0.8768   -1.1602   -0.4804 C   0  0  0  0  0  0  0  0  0  0  0  0
   -0.2100   -2.2069   -0.5739 C   0  0  0  0  0  0  0  0  0  0  0  0
   -1.2383   -2.0673    0.5579 C   0  0  0  0  0  0  0  0  0  0  0  0
   -1.9820   -0.7582    0.4804 C   0  0  0  0  0  0  0  0  0  0  0  0
   -1.5734    0.3384    1.2588 C   0  0  0  0  0  0  0  0  0  0  0  0
   -2.2351    1.5651    1.1494 C   0  0  0  0  0  0  0  0  0  0  0  0
   -3.3047    1.7072    0.2612 C   0  0  0  0  0  0  0  0  0  0  0  0
   -3.7123    0.6235   -0.5216 C   0  0  0  0  0  0  0  0  0  0  0  0
   -3.0521   -0.6047   -0.4166 C   0  0  0  0  0  0  0  0  0  0  0  0
    3.7461   -0.4248    1.2080 H   0  0  0  0  0  0  0  0  0  0  0  0
    1.6210    1.9217   -1.7205 H   0  0  0  0  0  0  0  0  0  0  0  0
   -0.0695    0.1637   -1.9067 H   0  0  0  0  0  0  0  0  0  0  0  0
   -0.7275   -2.1425   -1.5565 H   0  0  0  0  0  0  0  0  0  0  0  0
    0.2436   -3.2203   -0.5273 H   0  0  0  0  0  0  0  0  0  0  0  0
   -1.9651   -2.9055    0.4866 H   0  0  0  0  0  0  0  0  0  0  0  0
   -0.7320   -2.1681    1.5428 H   0  0  0  0  0  0  0  0  0  0  0  0
   -0.7371    0.2459    1.9409 H   0  0  0  0  0  0  0  0  0  0  0  0
   -1.9157    2.4069    1.7501 H   0  0  0  0  0  0  0  0  0  0  0  0
   -3.8150    2.6579    0.1767 H   0  0  0  0  0  0  0  0  0  0  0  0
   -4.5371    0.7365   -1.2133 H   0  0  0  0  0  0  0  0  0  0  0  0
   -3.3698   -1.4337   -1.0368 H   0  0  0  0  0  0  0  0  0  0  0  0
  1  2  1  0
  2  3  1  0
  3  4  2  0
  4  5  1  0
  5  6  1  0
  5  7  1  0
  5  8  1  0
  4  9  1  0
  9 10  2  0
 10 11  1  0
 11 12  1  0
 12 13  1  0
 13 14  1  0
 14 15  2  0
 15 16  1  0
 16 17  2  0
 17 18  1  0
 18 19  2  0
 11  2  2  0
 19 14  1  0
  3 20  1  0
  9 21  1  0
 10 22  1  0
 12 23  1  0
 12 24  1  0
 13 25  1  0
 13 26  1  0
 15 27  1  0
 16 28  1  0
 17 29  1  0
 18 30  1  0
 19 31  1  0
M  RAD  1   1   3
M  END
$$$$
