
     RDKit          3D

 31 32  0  0  0  0  0  0  0  0999 V2000
    1.4150   -2.4035   -0.1239 N   0  0  0  0  0  1  0  0  0  0  0  0
    2.0033   -1.1081   -0.0245 C   0  0  0  0  0  0  0  0  0  0  0  0
    3.3710   -0.9592   -0.2824 C   0  0  0  0  0  0  0  0  0  0  0  0
    3.9784    0.3063   -0.2209 C   0  0  0  0  0  0  0  0  0  0  0  0
    5.4615    0.4532   -0.4521 C   0  0  0  0  0  0  0  0  0  0  0  0
    6.1287    0.2707    0.7447 F   0  0  0  0  0  0  0  0  0  0  0  0
    5.7580    1.7119   -0.9461 F   0  0  0  0  0  0  0  0  0  0  0  0
    5.9089   -0.4856   -1.3656 F   0  0  0  0  0  0  0  0  0  0  0  0
    3.2015    1.4177    0.1446 C   0  0  0  0  0  0  0  0  0  0  0  0
    1.8363    1.2740    0.4030 C   0  0  0  0  0  0  0  0  0  0  0  0
    1.2251    0.0123    0.3301 C   0  0  0  0  0  0  0  0  0  0  0  0
   -0.2578   -0.1104    0.5818 C   0  0  0  0  0  0  0  0  0  0  0  0
   -1.0388    0.0060   -0.7306 C   0  0  0  0  0  0  0  0  0  0  0  0
   -2.5173   -0.1205   -0.4794 C   0  0  0  0  0  0  0  0  0  0  0  0
   -3.2864    1.0179   -0.1848 C   0  0  0  0  0  0  0  0  0  0  0  0
   -4.6538    0.8942    0.0807 C   0  0  0  0  0  0  0  0  0  0  0  0
   -5.2597   -0.3652    0.0637 C   0  0  0  0  0  0  0  0  0  0  0  0
   -4.4984   -1.5037   -0.2148 C   0  0  0  0  0  0  0  0  0  0  0  0
   -3.1307   -1.3845   -0.4808 C   0  0  0  0  0  0  0  0  0  0  0  0
    3.9585   -1.8344   -0.5328 H   0  0  0  0  0  0  0  0  0  0  0  0
    3.6496    2.3998    0.2296 H   0  0  0  0  0  0  0  0  0  0  0  0
    1.2548    2.1494    0.6649 H   0  0  0  0  0  0  0  0  0  0  0  0
   -0.4832   -1.0826    1.0721 H   0  0  0  0  0  0  0  0  0  0  0  0
   -0.5895    0.6873    1.2830 H   0  0  0  0  0  0  0  0  0  0  0  0
   -0.8208    0.9859   -1.2102 H   0  0  0  0  0  0  0  0  0  0  0  0
   -0.7091   -0.7877   -1.4368 H   0  0  0  0  0  0  0  0  0  0  0  0
   -2.8269    1.9983   -0.1593 H   0  0  0  0  0  0  0  0  0  0  0  0
   -5.2430    1.7744    0.3031 H   0  0  0  0  0  0  0  0  0  0  0  0
   -6.3179   -0.4593    0.2707 H   0  0  0  0  0  0  0  0  0  0  0  0
   -4.9673   -2.4791   -0.2210 H   0  0  0  0  0  0  0  0  0  0  0  0
   -2.5498   -2.2754   -0.6858 H   0  0  0  0  0  0  0  0  0  0  0  0
  1  2  1  0
  2  3  1  0
  3  4  2  0
  4  5  1  0
  5  6  1  0
  5  7  1  0
  5  8  1  0
  4  9  1  0
  9 10  2  0
 10 11  1  0
 11 12  1  0
 12 13  1  0
 13 14  1  0
 14 15  2  0
 15 16  1  0
 16 17  2  0
 17 18  1  0
 18 19  2  0
 11  2  2  0
 19 14  1  0
  3 20  1  0
  9 21  1  0
 10 22  1  0
 12 23  1  0
 12 24  1  0
 13 25  1  0
 13 26  1  0
 15 27  1  0
 16 28  1  0
 17 29  1  0
 18 30  1  0
 19 31  1  0
M  RAD  1   1   3
M  END
$$$$
