
     RDKit          3D

 31 32  0  0  0  0  0  0  0  0999 V2000
    1.1571    2.1141    1.5852 N   0  0  0  0  0  1  0  0  0  0  0  0
    1.8726    1.1725    0.7880 C   0  0  0  0  0  0  0  0  0  0  0  0
    3.2571    1.0512    0.9547 C   0  0  0  0  0  0  0  0  0  0  0  0
    3.9898    0.1148    0.2061 C   0  0  0  0  0  0  0  0  0  0  0  0
    5.4878    0.0225    0.3551 C   0  0  0  0  0  0  0  0  0  0  0  0
    6.0870    0.9185   -0.5102 F   0  0  0  0  0  0  0  0  0  0  0  0
    5.8692    0.3234    1.6513 F   0  0  0  0  0  0  0  0  0  0  0  0
    5.9317   -1.2550    0.0600 F   0  0  0  0  0  0  0  0  0  0  0  0
    3.3194   -0.6719   -0.7447 C   0  0  0  0  0  0  0  0  0  0  0  0
    1.9379   -0.5542   -0.9147 C   0  0  0  0  0  0  0  0  0  0  0  0
    1.2022    0.3722   -0.1591 C   0  0  0  0  0  0  0  0  0  0  0  0
   -0.2939    0.4563   -0.3386 C   0  0  0  0  0  0  0  0  0  0  0  0
   -1.0088   -0.4629    0.6563 C   0  0  0  0  0  0  0  0  0  0  0  0
   -2.5008   -0.3756    0.4793 C   0  0  0  0  0  0  0  0  0  0  0  0
   -3.2416    0.5929    1.1774 C   0  0  0  0  0  0  0  0  0  0  0  0
   -4.6233    0.6944    0.9871 C   0  0  0  0  0  0  0  0  0  0  0  0
   -5.2722   -0.1619    0.0932 C   0  0  0  0  0  0  0  0  0  0  0  0
   -4.5398   -1.1185   -0.6153 C   0  0  0  0  0  0  0  0  0  0  0  0
   -3.1580   -1.2235   -0.4281 C   0  0  0  0  0  0  0  0  0  0  0  0
    3.7594    1.6891    1.6719 H   0  0  0  0  0  0  0  0  0  0  0  0
    3.8636   -1.3800   -1.3570 H   0  0  0  0  0  0  0  0  0  0  0  0
    1.4410   -1.1853   -1.6414 H   0  0  0  0  0  0  0  0  0  0  0  0
   -0.6372    1.5048   -0.2001 H   0  0  0  0  0  0  0  0  0  0  0  0
   -0.5670    0.1634   -1.3768 H   0  0  0  0  0  0  0  0  0  0  0  0
   -0.7370   -0.1765    1.6962 H   0  0  0  0  0  0  0  0  0  0  0  0
   -0.6723   -1.5124    0.5044 H   0  0  0  0  0  0  0  0  0  0  0  0
   -2.7491    1.2686    1.8658 H   0  0  0  0  0  0  0  0  0  0  0  0
   -5.1904    1.4394    1.5301 H   0  0  0  0  0  0  0  0  0  0  0  0
   -6.3415   -0.0811   -0.0539 H   0  0  0  0  0  0  0  0  0  0  0  0
   -5.0424   -1.7766   -1.3123 H   0  0  0  0  0  0  0  0  0  0  0  0
   -2.6005   -1.9626   -0.9901 H   0  0  0  0  0  0  0  0  0  0  0  0
  1  2  1  0
  2  3  1  0
  3  4  2  0
  4  5  1  0
  5  6  1  0
  5  7  1  0
  5  8  1  0
  4  9  1  0
  9 10  2  0
 10 11  1  0
 11 12  1  0
 12 13  1  0
 13 14  1  0
 14 15  2  0
 15 16  1  0
 16 17  2  0
 17 18  1  0
 18 19  2  0
 11  2  2  0
 19 14  1  0
  3 20  1  0
  9 21  1  0
 10 22  1  0
 12 23  1  0
 12 24  1  0
 13 25  1  0
 13 26  1  0
 15 27  1  0
 16 28  1  0
 17 29  1  0
 18 30  1  0
 19 31  1  0
M  RAD  1   1   3
M  END
$$$$
