
     RDKit          3D

 31 32  0  0  0  0  0  0  0  0999 V2000
    1.2977    1.7071    1.6350 N   0  0  0  0  0  1  0  0  0  0  0  0
    1.9397    0.6474    0.9287 C   0  0  0  0  0  0  0  0  0  0  0  0
    3.3258    0.6960    0.7397 C   0  0  0  0  0  0  0  0  0  0  0  0
    3.9877   -0.3165    0.0250 C   0  0  0  0  0  0  0  0  0  0  0  0
    5.4872   -0.2836   -0.1336 C   0  0  0  0  0  0  0  0  0  0  0  0
    5.8716   -0.9348   -1.2931 F   0  0  0  0  0  0  0  0  0  0  0  0
    5.9428    1.0217   -0.2002 F   0  0  0  0  0  0  0  0  0  0  0  0
    6.0730   -0.9105    0.9502 F   0  0  0  0  0  0  0  0  0  0  0  0
    3.2440   -1.4032   -0.4634 C   0  0  0  0  0  0  0  0  0  0  0  0
    1.8607   -1.4561   -0.2770 C   0  0  0  0  0  0  0  0  0  0  0  0
    1.1958   -0.4393    0.4262 C   0  0  0  0  0  0  0  0  0  0  0  0
   -0.3036   -0.5039    0.5851 C   0  0  0  0  0  0  0  0  0  0  0  0
   -0.9992    0.2480   -0.5536 C   0  0  0  0  0  0  0  0  0  0  0  0
   -2.4943    0.1865   -0.3925 C   0  0  0  0  0  0  0  0  0  0  0  0
   -3.1656    1.1595    0.3669 C   0  0  0  0  0  0  0  0  0  0  0  0
   -4.5507    1.0828    0.5432 C   0  0  0  0  0  0  0  0  0  0  0  0
   -5.2725    0.0310   -0.0279 C   0  0  0  0  0  0  0  0  0  0  0  0
   -4.6097   -0.9484   -0.7729 C   0  0  0  0  0  0  0  0  0  0  0  0
   -3.2247   -0.8755   -0.9517 C   0  0  0  0  0  0  0  0  0  0  0  0
    3.8849    1.5278    1.1511 H   0  0  0  0  0  0  0  0  0  0  0  0
    3.7323   -2.2127   -0.9913 H   0  0  0  0  0  0  0  0  0  0  0  0
    1.3067   -2.2955   -0.6794 H   0  0  0  0  0  0  0  0  0  0  0  0
   -0.6033   -0.0704    1.5642 H   0  0  0  0  0  0  0  0  0  0  0  0
   -0.6380   -1.5651    0.5878 H   0  0  0  0  0  0  0  0  0  0  0  0
   -0.7070   -0.1982   -1.5300 H   0  0  0  0  0  0  0  0  0  0  0  0
   -0.6663    1.3093   -0.5630 H   0  0  0  0  0  0  0  0  0  0  0  0
   -2.6165    1.9743    0.8226 H   0  0  0  0  0  0  0  0  0  0  0  0
   -5.0641    1.8369    1.1256 H   0  0  0  0  0  0  0  0  0  0  0  0
   -6.3443   -0.0276    0.1106 H   0  0  0  0  0  0  0  0  0  0  0  0
   -5.1688   -1.7661   -1.2091 H   0  0  0  0  0  0  0  0  0  0  0  0
   -2.7217   -1.6457   -1.5232 H   0  0  0  0  0  0  0  0  0  0  0  0
  1  2  1  0
  2  3  1  0
  3  4  2  0
  4  5  1  0
  5  6  1  0
  5  7  1  0
  5  8  1  0
  4  9  1  0
  9 10  2  0
 10 11  1  0
 11 12  1  0
 12 13  1  0
 13 14  1  0
 14 15  2  0
 15 16  1  0
 16 17  2  0
 17 18  1  0
 18 19  2  0
 11  2  2  0
 19 14  1  0
  3 20  1  0
  9 21  1  0
 10 22  1  0
 12 23  1  0
 12 24  1  0
 13 25  1  0
 13 26  1  0
 15 27  1  0
 16 28  1  0
 17 29  1  0
 18 30  1  0
 19 31  1  0
M  RAD  1   1   3
M  END
$$$$
