 xtb: 6.7.1 (edcfbbe)
          07312615223D

245266  0     0  0            999 V2000
    0.1451   -1.7967   -0.8336 N   0  0  0  0  0  0  0  0  0  0  0  0
   -0.0897   -1.1243    1.9253 N   0  0  0  0  0  0  0  0  0  0  0  0
   -0.4351   -1.0206   -3.1205 C   0  0  0  0  0  0  0  0  0  0  0  0
   -0.0086   -1.9876   -2.1831 C   0  0  0  0  0  0  0  0  0  0  0  0
    0.3910   -3.3371   -2.5361 C   0  0  0  0  0  0  0  0  0  0  0  0
    0.3587   -3.7492   -3.5458 H   0  0  0  0  0  0  0  0  0  0  0  0
    0.8121   -3.9374   -1.3832 C   0  0  0  0  0  0  0  0  0  0  0  0
    1.1970   -4.9490   -1.2477 H   0  0  0  0  0  0  0  0  0  0  0  0
    0.6227   -2.9765   -0.3135 C   0  0  0  0  0  0  0  0  0  0  0  0
    0.8058   -3.2703    1.0521 C   0  0  0  0  0  0  0  0  0  0  0  0
    0.4030   -2.3954    2.0809 C   0  0  0  0  0  0  0  0  0  0  0  0
    0.3284   -2.7755    3.4793 C   0  0  0  0  0  0  0  0  0  0  0  0
    0.6566   -3.7374    3.8762 H   0  0  0  0  0  0  0  0  0  0  0  0
   -0.2580   -1.7368    4.1441 C   0  0  0  0  0  0  0  0  0  0  0  0
   -0.5039   -1.6565    5.2039 H   0  0  0  0  0  0  0  0  0  0  0  0
   -0.5034   -0.6974    3.1617 C   0  0  0  0  0  0  0  0  0  0  0  0
    1.3415   -4.6243    1.4363 C   0  0  0  0  0  0  0  0  0  0  0  0
    2.6821   -4.7822    1.8609 C   0  0  0  0  0  0  0  0  0  0  0  0
    3.1912   -6.0419    2.2254 C   0  0  0  0  0  0  0  0  0  0  0  0
    2.3552   -7.1603    2.1573 C   0  0  0  0  0  0  0  0  0  0  0  0
    2.7514   -8.1472    2.4304 H   0  0  0  0  0  0  0  0  0  0  0  0
    1.0254   -7.0444    1.7443 C   0  0  0  0  0  0  0  0  0  0  0  0
    0.5206   -5.7772    1.3960 C   0  0  0  0  0  0  0  0  0  0  0  0
   -0.8249    1.5604    1.2010 N   0  0  0  0  0  0  0  0  0  0  0  0
   -0.5419    0.8962   -1.5413 N   0  0  0  0  0  0  0  0  0  0  0  0
   -1.0557    0.5637    3.4683 C   0  0  0  0  0  0  0  0  0  0  0  0
   -1.1396    1.6206    2.5348 C   0  0  0  0  0  0  0  0  0  0  0  0
   -1.5060    2.9782    2.8856 C   0  0  0  0  0  0  0  0  0  0  0  0
   -1.8206    3.2958    3.8805 H   0  0  0  0  0  0  0  0  0  0  0  0
   -1.3602    3.7333    1.7548 C   0  0  0  0  0  0  0  0  0  0  0  0
   -1.5384    4.8013    1.6260 H   0  0  0  0  0  0  0  0  0  0  0  0
   -0.9693    2.8296    0.6929 C   0  0  0  0  0  0  0  0  0  0  0  0
   -0.8487    3.1984   -0.6604 C   0  0  0  0  0  0  0  0  0  0  0  0
   -0.7310    2.2475   -1.6922 C   0  0  0  0  0  0  0  0  0  0  0  0
   -0.9348    2.5570   -3.0935 C   0  0  0  0  0  0  0  0  0  0  0  0
   -1.1064    3.5595   -3.4871 H   0  0  0  0  0  0  0  0  0  0  0  0
   -0.9201    1.3701   -3.7688 C   0  0  0  0  0  0  0  0  0  0  0  0
   -1.0736    1.1904   -4.8337 H   0  0  0  0  0  0  0  0  0  0  0  0
   -0.6410    0.3355   -2.7908 C   0  0  0  0  0  0  0  0  0  0  0  0
   -0.9168    4.6512   -1.0455 C   0  0  0  0  0  0  0  0  0  0  0  0
    0.2711    5.3379   -1.3975 C   0  0  0  0  0  0  0  0  0  0  0  0
    0.2401    6.6807   -1.8158 C   0  0  0  0  0  0  0  0  0  0  0  0
   -0.9851    7.3535   -1.8551 C   0  0  0  0  0  0  0  0  0  0  0  0
   -1.0133    8.4043   -2.1722 H   0  0  0  0  0  0  0  0  0  0  0  0
   -2.1754    6.7115   -1.5012 C   0  0  0  0  0  0  0  0  0  0  0  0
   -2.1401    5.3587   -1.1136 C   0  0  0  0  0  0  0  0  0  0  0  0
   -0.2321   -0.0861    0.1915 Fe  0  0  0  0  0  0  0  0  0  0  0  0
   -2.4619   -0.7050    0.1675 Cl  0  0  0  0  0  0  0  0  0  0  0  0
   -1.6376    0.7773    4.8443 C   0  0  0  0  0  0  0  0  0  0  0  0
   -0.8677    1.3134    5.9108 C   0  0  0  0  0  0  0  0  0  0  0  0
   -2.9980    0.4274    5.0725 C   0  0  0  0  0  0  0  0  0  0  0  0
   -1.4447    1.5020    7.1827 C   0  0  0  0  0  0  0  0  0  0  0  0
    0.4822    1.6585    5.6413 N   0  0  0  0  0  0  0  0  0  0  0  0
   -3.5711    0.6409    6.3447 C   0  0  0  0  0  0  0  0  0  0  0  0
   -3.7284   -0.1568    4.0105 N   0  0  0  0  0  0  0  0  0  0  0  0
   -0.8306    1.9024    7.9938 H   0  0  0  0  0  0  0  0  0  0  0  0
   -2.7889    1.1688    7.3753 C   0  0  0  0  0  0  0  0  0  0  0  0
    1.4608    2.0634    6.5207 C   0  0  0  0  0  0  0  0  0  0  0  0
    0.7527    1.5575    4.6614 H   0  0  0  0  0  0  0  0  0  0  0  0
   -4.6233    0.3873    6.4968 H   0  0  0  0  0  0  0  0  0  0  0  0
   -5.0600   -0.5229    3.9906 C   0  0  0  0  0  0  0  0  0  0  0  0
   -3.2001   -0.3331    3.1506 H   0  0  0  0  0  0  0  0  0  0  0  0
   -3.2408    1.3240    8.3635 H   0  0  0  0  0  0  0  0  0  0  0  0
    1.3174    2.1711    7.7337 O   0  0  0  0  0  0  0  0  0  0  0  0
    2.7887    2.3800    5.8646 C   0  0  0  0  0  0  0  0  0  0  0  0
   -5.8574   -0.2849    4.8927 O   0  0  0  0  0  0  0  0  0  0  0  0
   -5.4774   -1.2715    2.7475 C   0  0  0  0  0  0  0  0  0  0  0  0
    4.0448    1.9870    6.5996 C   0  0  0  0  0  0  0  0  0  0  0  0
    2.8421    2.3822    4.7705 H   0  0  0  0  0  0  0  0  0  0  0  0
    3.6345    3.4398    6.5807 C   0  0  0  0  0  0  0  0  0  0  0  0
   -6.8292   -0.9639    2.1531 C   0  0  0  0  0  0  0  0  0  0  0  0
   -4.6967   -1.5875    2.0461 H   0  0  0  0  0  0  0  0  0  0  0  0
   -6.6559   -2.2326    2.9540 C   0  0  0  0  0  0  0  0  0  0  0  0
    3.9232    1.4643    7.5514 H   0  0  0  0  0  0  0  0  0  0  0  0
    4.9058    1.7034    5.9911 H   0  0  0  0  0  0  0  0  0  0  0  0
    3.2028    3.8415    7.5008 H   0  0  0  0  0  0  0  0  0  0  0  0
    4.4168    4.4024    5.7457 C   0  0  0  0  0  0  0  0  0  0  0  0
   -7.4149   -0.1760    2.6351 H   0  0  0  0  0  0  0  0  0  0  0  0
   -6.9171   -1.0503    1.0666 H   0  0  0  0  0  0  0  0  0  0  0  0
   -7.0755   -2.2363    3.9648 H   0  0  0  0  0  0  0  0  0  0  0  0
   -6.6422   -3.5520    2.2579 C   0  0  0  0  0  0  0  0  0  0  0  0
    4.5193    5.5961    6.3534 O   0  0  0  0  0  0  0  0  0  0  0  0
    4.9139    4.1409    4.6664 O   0  0  0  0  0  0  0  0  0  0  0  0
   -7.2581   -4.4944    3.0056 O   0  0  0  0  0  0  0  0  0  0  0  0
   -6.1593   -3.7694    1.1649 O   0  0  0  0  0  0  0  0  0  0  0  0
    5.2671    6.6588    5.6907 C   0  0  0  0  0  0  0  0  0  0  0  0
   -7.3556   -5.8425    2.4664 C   0  0  0  0  0  0  0  0  0  0  0  0
    4.2910    7.5435    4.9029 C   0  0  0  0  0  0  0  0  0  0  0  0
    6.0313    7.4095    6.7802 C   0  0  0  0  0  0  0  0  0  0  0  0
    5.9645    6.1683    4.9885 H   0  0  0  0  0  0  0  0  0  0  0  0
   -7.3561   -6.7945    3.6636 C   0  0  0  0  0  0  0  0  0  0  0  0
   -8.6117   -5.9496    1.5944 C   0  0  0  0  0  0  0  0  0  0  0  0
   -6.4590   -6.0063    1.8387 H   0  0  0  0  0  0  0  0  0  0  0  0
    3.7754    6.9523    4.1284 H   0  0  0  0  0  0  0  0  0  0  0  0
    3.5411    7.9803    5.5758 H   0  0  0  0  0  0  0  0  0  0  0  0
    4.8381    8.3611    4.4137 H   0  0  0  0  0  0  0  0  0  0  0  0
    6.7029    6.7320    7.3229 H   0  0  0  0  0  0  0  0  0  0  0  0
    6.6392    8.2116    6.3405 H   0  0  0  0  0  0  0  0  0  0  0  0
    5.3416    7.8582    7.5065 H   0  0  0  0  0  0  0  0  0  0  0  0
   -6.4415   -6.6660    4.2569 H   0  0  0  0  0  0  0  0  0  0  0  0
   -8.2247   -6.6058    4.3123 H   0  0  0  0  0  0  0  0  0  0  0  0
   -7.4101   -7.8373    3.3220 H   0  0  0  0  0  0  0  0  0  0  0  0
   -8.5528   -5.2453    0.7535 H   0  0  0  0  0  0  0  0  0  0  0  0
   -8.7109   -6.9670    1.1909 H   0  0  0  0  0  0  0  0  0  0  0  0
   -9.5146   -5.7288    2.1839 H   0  0  0  0  0  0  0  0  0  0  0  0
   -0.6744   -1.4847   -4.5356 C   0  0  0  0  0  0  0  0  0  0  0  0
    0.2886   -1.2796   -5.5605 C   0  0  0  0  0  0  0  0  0  0  0  0
   -1.8805   -2.1730   -4.8423 C   0  0  0  0  0  0  0  0  0  0  0  0
    0.0813   -1.8101   -6.8492 C   0  0  0  0  0  0  0  0  0  0  0  0
    1.4350   -0.5099   -5.2369 N   0  0  0  0  0  0  0  0  0  0  0  0
   -2.0762   -2.7079   -6.1333 C   0  0  0  0  0  0  0  0  0  0  0  0
   -2.8688   -2.2529   -3.8336 N   0  0  0  0  0  0  0  0  0  0  0  0
    0.8390   -1.6464   -7.6208 H   0  0  0  0  0  0  0  0  0  0  0  0
   -1.0922   -2.5260   -7.1096 C   0  0  0  0  0  0  0  0  0  0  0  0
    2.3825    0.0281   -6.0804 C   0  0  0  0  0  0  0  0  0  0  0  0
    1.4521   -0.1826   -4.2695 H   0  0  0  0  0  0  0  0  0  0  0  0
   -2.9989   -3.2558   -6.3426 H   0  0  0  0  0  0  0  0  0  0  0  0
   -4.1014   -2.8725   -3.8831 C   0  0  0  0  0  0  0  0  0  0  0  0
   -2.6544   -1.7436   -2.9720 H   0  0  0  0  0  0  0  0  0  0  0  0
   -1.2497   -2.9461   -8.1115 H   0  0  0  0  0  0  0  0  0  0  0  0
    2.4904   -0.2274   -7.2739 O   0  0  0  0  0  0  0  0  0  0  0  0
    3.2879    1.0365   -5.4053 C   0  0  0  0  0  0  0  0  0  0  0  0
   -4.4827   -3.5875   -4.8046 O   0  0  0  0  0  0  0  0  0  0  0  0
   -4.9797   -2.5780   -2.6914 C   0  0  0  0  0  0  0  0  0  0  0  0
    3.6123    2.2852   -6.1878 C   0  0  0  0  0  0  0  0  0  0  0  0
    3.2245    1.1439   -4.3169 H   0  0  0  0  0  0  0  0  0  0  0  0
    4.6794    1.2309   -6.0076 C   0  0  0  0  0  0  0  0  0  0  0  0
   -5.8876   -3.6676   -2.1818 C   0  0  0  0  0  0  0  0  0  0  0  0
   -4.6172   -1.8596   -1.9467 H   0  0  0  0  0  0  0  0  0  0  0  0
   -6.4850   -2.5467   -2.9973 C   0  0  0  0  0  0  0  0  0  0  0  0
    3.1792    2.3683   -7.1882 H   0  0  0  0  0  0  0  0  0  0  0  0
    3.7243    3.2143   -5.6239 H   0  0  0  0  0  0  0  0  0  0  0  0
    4.9210    0.6108   -6.8749 H   0  0  0  0  0  0  0  0  0  0  0  0
    5.8040    1.5310   -5.0672 C   0  0  0  0  0  0  0  0  0  0  0  0
   -5.8263   -4.6357   -2.6858 H   0  0  0  0  0  0  0  0  0  0  0  0
   -6.0718   -3.6798   -1.1042 H   0  0  0  0  0  0  0  0  0  0  0  0
   -6.7518   -2.7779   -4.0332 H   0  0  0  0  0  0  0  0  0  0  0  0
   -7.3237   -1.5043   -2.3351 C   0  0  0  0  0  0  0  0  0  0  0  0
    6.9706    1.0672   -5.5450 O   0  0  0  0  0  0  0  0  0  0  0  0
    5.6830    2.1323   -4.0158 O   0  0  0  0  0  0  0  0  0  0  0  0
   -8.3156   -1.0933   -3.1543 O   0  0  0  0  0  0  0  0  0  0  0  0
   -7.1598   -1.0781   -1.2096 O   0  0  0  0  0  0  0  0  0  0  0  0
    8.1834    1.2951   -4.7677 C   0  0  0  0  0  0  0  0  0  0  0  0
   -9.2359   -0.0792   -2.6603 C   0  0  0  0  0  0  0  0  0  0  0  0
    9.0859    0.0816   -4.9949 C   0  0  0  0  0  0  0  0  0  0  0  0
    8.8118    2.6225   -5.2011 C   0  0  0  0  0  0  0  0  0  0  0  0
    7.8773    1.3608   -3.7060 H   0  0  0  0  0  0  0  0  0  0  0  0
   -8.6603    1.3149   -2.9408 C   0  0  0  0  0  0  0  0  0  0  0  0
  -10.5793   -0.3380   -3.3413 C   0  0  0  0  0  0  0  0  0  0  0  0
   -9.3170   -0.2235   -1.5676 H   0  0  0  0  0  0  0  0  0  0  0  0
    8.5731   -0.8386   -4.6858 H   0  0  0  0  0  0  0  0  0  0  0  0
    9.3600   -0.0080   -6.0569 H   0  0  0  0  0  0  0  0  0  0  0  0
   10.0127    0.1844   -4.4141 H   0  0  0  0  0  0  0  0  0  0  0  0
    8.1197    3.4538   -5.0154 H   0  0  0  0  0  0  0  0  0  0  0  0
    9.7357    2.8106   -4.6371 H   0  0  0  0  0  0  0  0  0  0  0  0
    9.0667    2.6012   -6.2720 H   0  0  0  0  0  0  0  0  0  0  0  0
   -7.6982    1.4439   -2.4189 H   0  0  0  0  0  0  0  0  0  0  0  0
   -8.5045    1.4575   -4.0191 H   0  0  0  0  0  0  0  0  0  0  0  0
   -9.3552    2.0890   -2.5867 H   0  0  0  0  0  0  0  0  0  0  0  0
  -10.9389   -1.3530   -3.1207 H   0  0  0  0  0  0  0  0  0  0  0  0
  -11.3338    0.3774   -2.9876 H   0  0  0  0  0  0  0  0  0  0  0  0
  -10.4934   -0.2337   -4.4308 H   0  0  0  0  0  0  0  0  0  0  0  0
    4.2324   -6.1404    2.5541 H   0  0  0  0  0  0  0  0  0  0  0  0
    0.3784   -7.9274    1.6874 H   0  0  0  0  0  0  0  0  0  0  0  0
    1.1654    7.1865   -2.1147 H   0  0  0  0  0  0  0  0  0  0  0  0
   -3.1306    7.2492   -1.5281 H   0  0  0  0  0  0  0  0  0  0  0  0
    3.4370   -3.6303    1.8962 O   0  0  0  0  0  0  0  0  0  0  0  0
   -0.7661   -5.5762    0.9543 O   0  0  0  0  0  0  0  0  0  0  0  0
    1.4181    4.5753   -1.3739 O   0  0  0  0  0  0  0  0  0  0  0  0
   -3.2585    4.6574   -0.7265 O   0  0  0  0  0  0  0  0  0  0  0  0
    4.7722   -3.6810    2.2977 C   0  0  0  0  0  0  0  0  0  0  0  0
    5.7752   -3.9647    1.3609 C   0  0  0  0  0  0  0  0  0  0  0  0
    5.0990   -3.3683    3.6240 C   0  0  0  0  0  0  0  0  0  0  0  0
    7.1168   -3.9422    1.7629 C   0  0  0  0  0  0  0  0  0  0  0  0
    5.4951   -4.1946    0.3278 H   0  0  0  0  0  0  0  0  0  0  0  0
    6.4446   -3.3468    4.0140 C   0  0  0  0  0  0  0  0  0  0  0  0
    4.2928   -3.1412    4.3292 H   0  0  0  0  0  0  0  0  0  0  0  0
    7.4549   -3.6354    3.0874 C   0  0  0  0  0  0  0  0  0  0  0  0
    7.9050   -4.1615    1.0338 H   0  0  0  0  0  0  0  0  0  0  0  0
    6.7062   -3.1024    5.0498 H   0  0  0  0  0  0  0  0  0  0  0  0
    8.5087   -3.6182    3.3972 H   0  0  0  0  0  0  0  0  0  0  0  0
   -1.7464   -6.5501    1.1143 C   0  0  0  0  0  0  0  0  0  0  0  0
   -2.1326   -6.9987    2.3856 C   0  0  0  0  0  0  0  0  0  0  0  0
   -2.4006   -7.0149   -0.0350 C   0  0  0  0  0  0  0  0  0  0  0  0
   -3.1669   -7.9358    2.4983 C   0  0  0  0  0  0  0  0  0  0  0  0
   -1.6239   -6.6077    3.2732 H   0  0  0  0  0  0  0  0  0  0  0  0
   -3.4394   -7.9455    0.0923 C   0  0  0  0  0  0  0  0  0  0  0  0
   -2.0879   -6.6309   -1.0113 H   0  0  0  0  0  0  0  0  0  0  0  0
   -3.8213   -8.4139    1.3557 C   0  0  0  0  0  0  0  0  0  0  0  0
   -3.4688   -8.2917    3.4896 H   0  0  0  0  0  0  0  0  0  0  0  0
   -3.9529   -8.3089   -0.8044 H   0  0  0  0  0  0  0  0  0  0  0  0
   -4.6307   -9.1497    1.4511 H   0  0  0  0  0  0  0  0  0  0  0  0
    2.6926    5.1107   -1.2609 C   0  0  0  0  0  0  0  0  0  0  0  0
    3.0092    6.1649   -0.3888 C   0  0  0  0  0  0  0  0  0  0  0  0
    3.7050    4.4752   -1.9986 C   0  0  0  0  0  0  0  0  0  0  0  0
    4.3388    6.5918   -0.2801 C   0  0  0  0  0  0  0  0  0  0  0  0
    2.2201    6.6425    0.2020 H   0  0  0  0  0  0  0  0  0  0  0  0
    5.0299    4.9032   -1.8736 C   0  0  0  0  0  0  0  0  0  0  0  0
    3.4450    3.6414   -2.6586 H   0  0  0  0  0  0  0  0  0  0  0  0
    5.3527    5.9681   -1.0199 C   0  0  0  0  0  0  0  0  0  0  0  0
    4.5856    7.4182    0.3984 H   0  0  0  0  0  0  0  0  0  0  0  0
    5.8035    4.3868   -2.4524 H   0  0  0  0  0  0  0  0  0  0  0  0
    6.3916    6.3104   -0.9256 H   0  0  0  0  0  0  0  0  0  0  0  0
   -4.5382    5.0683   -1.0809 C   0  0  0  0  0  0  0  0  0  0  0  0
   -4.9015    5.2889   -2.4174 C   0  0  0  0  0  0  0  0  0  0  0  0
   -5.4922    5.1706   -0.0582 C   0  0  0  0  0  0  0  0  0  0  0  0
   -6.2243    5.6328   -2.7220 C   0  0  0  0  0  0  0  0  0  0  0  0
   -4.1501    5.1833   -3.2070 H   0  0  0  0  0  0  0  0  0  0  0  0
   -6.8133    5.5078   -0.3776 C   0  0  0  0  0  0  0  0  0  0  0  0
   -5.1819    4.9749    0.9731 H   0  0  0  0  0  0  0  0  0  0  0  0
   -7.1830    5.7461   -1.7072 C   0  0  0  0  0  0  0  0  0  0  0  0
   -6.5111    5.8055   -3.7651 H   0  0  0  0  0  0  0  0  0  0  0  0
   -7.5600    5.5865    0.4199 H   0  0  0  0  0  0  0  0  0  0  0  0
   -8.2189    6.0146   -1.9536 H   0  0  0  0  0  0  0  0  0  0  0  0
    1.3033    0.4705    0.3202 N   0  0  0  0  0  0  0  0  0  0  0  0
    2.3687    1.1623    0.5648 C   0  0  0  0  0  0  0  0  0  0  0  0
    5.8851    3.5227    1.3872 C   0  0  0  0  0  0  0  0  0  0  0  0
    4.6666    2.7260    1.0702 C   0  0  0  0  0  0  0  0  0  0  0  0
    3.4598    3.0041    1.7167 C   0  0  0  0  0  0  0  0  0  0  0  0
    2.3387    2.2591    1.4773 C   0  0  0  0  0  0  0  0  0  0  0  0
    3.6173    0.8589   -0.0736 C   0  0  0  0  0  0  0  0  0  0  0  0
    3.6478   -0.3865   -0.9112 C   0  0  0  0  0  0  0  0  0  0  0  0
    4.8483   -0.5386   -1.8403 C   0  0  0  0  0  0  0  0  0  0  0  0
    6.1662   -0.8948   -1.1983 C   0  0  0  0  0  0  0  0  0  0  0  0
    7.2332   -1.1924   -2.0407 C   0  0  0  0  0  0  0  0  0  0  0  0
    8.4943   -1.4529   -1.5398 C   0  0  0  0  0  0  0  0  0  0  0  0
    8.7152   -1.4107   -0.1729 C   0  0  0  0  0  0  0  0  0  0  0  0
    7.6580   -1.1423    0.6770 C   0  0  0  0  0  0  0  0  0  0  0  0
    6.3903   -0.9036    0.1718 C   0  0  0  0  0  0  0  0  0  0  0  0
    4.7046    1.6673    0.1639 C   0  0  0  0  0  0  0  0  0  0  0  0
    5.8219    4.5001    0.9097 H   0  0  0  0  0  0  0  0  0  0  0  0
    6.7831    3.0229    1.0343 H   0  0  0  0  0  0  0  0  0  0  0  0
    5.9506    3.6830    2.4618 H   0  0  0  0  0  0  0  0  0  0  0  0
    3.4258    3.8153    2.4297 H   0  0  0  0  0  0  0  0  0  0  0  0
    1.4046    2.4814    1.9659 H   0  0  0  0  0  0  0  0  0  0  0  0
    3.5887   -1.2510   -0.2392 H   0  0  0  0  0  0  0  0  0  0  0  0
    2.7243   -0.4082   -1.5013 H   0  0  0  0  0  0  0  0  0  0  0  0
    4.6144   -1.3139   -2.5762 H   0  0  0  0  0  0  0  0  0  0  0  0
    4.9888    0.3947   -2.3965 H   0  0  0  0  0  0  0  0  0  0  0  0
    7.0593   -1.2127   -3.1074 H   0  0  0  0  0  0  0  0  0  0  0  0
    9.3073   -1.6802   -2.2135 H   0  0  0  0  0  0  0  0  0  0  0  0
    9.7027   -1.5922    0.2245 H   0  0  0  0  0  0  0  0  0  0  0  0
    7.8143   -1.1144    1.7449 H   0  0  0  0  0  0  0  0  0  0  0  0
    5.5845   -0.7127    0.8623 H   0  0  0  0  0  0  0  0  0  0  0  0
    5.6353    1.4667   -0.3424 H   0  0  0  0  0  0  0  0  0  0  0  0
  1  4  4  0  0  0  0
  3  4  4  0  0  0  0
  4  5  1  0  0  0  0
  5  6  1  0  0  0  0
  5  7  2  0  0  0  0
  7  8  1  0  0  0  0
  1  9  4  0  0  0  0
  7  9  1  0  0  0  0
  9 10  4  0  0  0  0
  2 11  4  0  0  0  0
 10 11  4  0  0  0  0
 11 12  1  0  0  0  0
 12 13  1  0  0  0  0
 12 14  2  0  0  0  0
 14 15  1  0  0  0  0
  2 16  4  0  0  0  0
 14 16  1  0  0  0  0
 10 17  1  0  0  0  0
 17 18  4  0  0  0  0
 18 19  4  0  0  0  0
 19 20  4  0  0  0  0
 20 21  1  0  0  0  0
 20 22  4  0  0  0  0
 17 23  4  0  0  0  0
 22 23  4  0  0  0  0
 16 26  4  0  0  0  0
 24 27  4  0  0  0  0
 26 27  4  0  0  0  0
 27 28  1  0  0  0  0
 28 29  1  0  0  0  0
 28 30  2  0  0  0  0
 30 31  1  0  0  0  0
 24 32  4  0  0  0  0
 30 32  1  0  0  0  0
 32 33  4  0  0  0  0
 25 34  4  0  0  0  0
 33 34  4  0  0  0  0
 34 35  1  0  0  0  0
 35 36  1  0  0  0  0
 35 37  2  0  0  0  0
 37 38  1  0  0  0  0
  3 39  4  0  0  0  0
 25 39  4  0  0  0  0
 37 39  1  0  0  0  0
 33 40  1  0  0  0  0
 40 41  4  0  0  0  0
 41 42  4  0  0  0  0
 42 43  4  0  0  0  0
 43 44  1  0  0  0  0
 43 45  4  0  0  0  0
 40 46  4  0  0  0  0
 45 46  4  0  0  0  0
  1 47  1  0  0  0  0
  2 47  1  0  0  0  0
 24 47  1  0  0  0  0
 25 47  1  0  0  0  0
 47 48  1  0  0  0  0
 26 49  1  0  0  0  0
 49 50  4  0  0  0  0
 49 51  4  0  0  0  0
 50 52  4  0  0  0  0
 50 53  1  0  0  0  0
 51 54  4  0  0  0  0
 51 55  1  0  0  0  0
 52 56  1  0  0  0  0
 52 57  4  0  0  0  0
 54 57  4  0  0  0  0
 53 58  4  0  0  0  0
 53 59  1  0  0  0  0
 54 60  1  0  0  0  0
 55 61  4  0  0  0  0
 55 62  1  0  0  0  0
 57 63  1  0  0  0  0
 58 64  2  0  0  0  0
 58 65  1  0  0  0  0
 61 66  2  0  0  0  0
 61 67  1  0  0  0  0
 65 68  1  0  0  0  0
 65 69  1  0  0  0  0
 65 70  1  0  0  0  0
 68 70  1  0  0  0  0
 67 71  1  0  0  0  0
 67 72  1  0  0  0  0
 67 73  1  0  0  0  0
 71 73  1  0  0  0  0
 68 74  1  0  0  0  0
 68 75  1  0  0  0  0
 70 76  1  0  0  0  0
 70 77  1  0  0  0  0
 71 78  1  0  0  0  0
 71 79  1  0  0  0  0
 73 80  1  0  0  0  0
 73 81  1  0  0  0  0
 77 82  1  0  0  0  0
 77 83  2  0  0  0  0
 81 84  1  0  0  0  0
 81 85  2  0  0  0  0
 82 86  1  0  0  0  0
 84 87  1  0  0  0  0
 86 88  1  0  0  0  0
 86 89  1  0  0  0  0
 86 90  1  0  0  0  0
 87 91  1  0  0  0  0
 87 92  1  0  0  0  0
 87 93  1  0  0  0  0
 88 94  1  0  0  0  0
 88 95  1  0  0  0  0
 88 96  1  0  0  0  0
 89 97  1  0  0  0  0
 89 98  1  0  0  0  0
 89 99  1  0  0  0  0
 91100  1  0  0  0  0
 91101  1  0  0  0  0
 91102  1  0  0  0  0
 92103  1  0  0  0  0
 92104  1  0  0  0  0
 92105  1  0  0  0  0
  3106  1  0  0  0  0
106107  4  0  0  0  0
106108  4  0  0  0  0
107109  4  0  0  0  0
107110  1  0  0  0  0
108111  4  0  0  0  0
108112  1  0  0  0  0
109113  1  0  0  0  0
109114  4  0  0  0  0
111114  4  0  0  0  0
110115  4  0  0  0  0
110116  1  0  0  0  0
111117  1  0  0  0  0
112118  4  0  0  0  0
112119  1  0  0  0  0
114120  1  0  0  0  0
115121  2  0  0  0  0
115122  1  0  0  0  0
118123  2  0  0  0  0
118124  1  0  0  0  0
122125  1  0  0  0  0
122126  1  0  0  0  0
122127  1  0  0  0  0
125127  1  0  0  0  0
124128  1  0  0  0  0
124129  1  0  0  0  0
124130  1  0  0  0  0
128130  1  0  0  0  0
125131  1  0  0  0  0
125132  1  0  0  0  0
127133  1  0  0  0  0
127134  1  0  0  0  0
128135  1  0  0  0  0
128136  1  0  0  0  0
130137  1  0  0  0  0
130138  1  0  0  0  0
134139  1  0  0  0  0
134140  2  0  0  0  0
138141  1  0  0  0  0
138142  2  0  0  0  0
139143  1  0  0  0  0
141144  1  0  0  0  0
143145  1  0  0  0  0
143146  1  0  0  0  0
143147  1  0  0  0  0
144148  1  0  0  0  0
144149  1  0  0  0  0
144150  1  0  0  0  0
145151  1  0  0  0  0
145152  1  0  0  0  0
145153  1  0  0  0  0
146154  1  0  0  0  0
146155  1  0  0  0  0
146156  1  0  0  0  0
148157  1  0  0  0  0
148158  1  0  0  0  0
148159  1  0  0  0  0
149160  1  0  0  0  0
149161  1  0  0  0  0
149162  1  0  0  0  0
 19163  1  0  0  0  0
 22164  1  0  0  0  0
 42165  1  0  0  0  0
 45166  1  0  0  0  0
 18167  1  0  0  0  0
 23168  1  0  0  0  0
 41169  1  0  0  0  0
 46170  1  0  0  0  0
167171  1  0  0  0  0
171172  4  0  0  0  0
171173  4  0  0  0  0
172174  4  0  0  0  0
172175  1  0  0  0  0
173176  4  0  0  0  0
173177  1  0  0  0  0
174178  4  0  0  0  0
176178  4  0  0  0  0
174179  1  0  0  0  0
176180  1  0  0  0  0
178181  1  0  0  0  0
168182  1  0  0  0  0
182183  4  0  0  0  0
182184  4  0  0  0  0
183185  4  0  0  0  0
183186  1  0  0  0  0
184187  4  0  0  0  0
184188  1  0  0  0  0
185189  4  0  0  0  0
187189  4  0  0  0  0
185190  1  0  0  0  0
187191  1  0  0  0  0
189192  1  0  0  0  0
169193  1  0  0  0  0
193194  4  0  0  0  0
193195  4  0  0  0  0
194196  4  0  0  0  0
194197  1  0  0  0  0
195198  4  0  0  0  0
195199  1  0  0  0  0
196200  4  0  0  0  0
198200  4  0  0  0  0
196201  1  0  0  0  0
198202  1  0  0  0  0
200203  1  0  0  0  0
170204  1  0  0  0  0
204205  4  0  0  0  0
204206  4  0  0  0  0
205207  4  0  0  0  0
205208  1  0  0  0  0
206209  4  0  0  0  0
206210  1  0  0  0  0
207211  4  0  0  0  0
209211  4  0  0  0  0
207212  1  0  0  0  0
209213  1  0  0  0  0
211214  1  0  0  0  0
 47215  2  0  0  0  0
215216  4  0  0  0  0
217218  1  0  0  0  0
218219  4  0  0  0  0
216220  1  0  0  0  0
219220  2  0  0  0  0
216221  1  0  0  0  0
221222  1  0  0  0  0
222223  1  0  0  0  0
223224  1  0  0  0  0
224225  4  0  0  0  0
225226  4  0  0  0  0
226227  4  0  0  0  0
227228  4  0  0  0  0
224229  4  0  0  0  0
228229  4  0  0  0  0
218230  4  0  0  0  0
221230  4  0  0  0  0
217231  1  0  0  0  0
217232  1  0  0  0  0
217233  1  0  0  0  0
219234  1  0  0  0  0
220235  1  0  0  0  0
222236  1  0  0  0  0
222237  1  0  0  0  0
223238  1  0  0  0  0
223239  1  0  0  0  0
225240  1  0  0  0  0
226241  1  0  0  0  0
227242  1  0  0  0  0
228243  1  0  0  0  0
229244  1  0  0  0  0
230245  1  0  0  0  0
M  END
