
     RDKit          3D

 34 35  0  0  0  0  0  0  0  0999 V2000
   -3.1523   -1.7246    0.7236 C   0  0  0  0  0  0  0  0  0  0  0  0
   -2.7285   -0.3663    0.2271 C   0  0  0  0  0  0  0  0  0  0  0  0
   -3.6246    0.7110    0.3485 C   0  0  0  0  0  0  0  0  0  0  0  0
   -3.2869    1.9757   -0.1356 C   0  0  0  0  0  0  0  0  0  0  0  0
   -2.0569    2.1808   -0.7574 C   0  0  0  0  0  0  0  0  0  0  0  0
   -1.1588    1.1224   -0.8969 C   0  0  0  0  0  0  0  0  0  0  0  0
   -1.4757   -0.1587   -0.4083 C   0  0  0  0  0  0  0  0  0  0  0  0
   -0.4500   -1.2636   -0.5552 C   0  0  0  0  0  0  0  0  0  0  0  0
    0.4550   -1.3979    0.6830 C   0  0  0  0  0  0  0  0  0  0  0  0
    1.4399   -0.2528    0.8044 C   0  0  0  0  0  0  0  0  0  0  0  0
    1.0152    0.9146    1.4669 C   0  0  0  0  0  0  0  0  0  0  0  0
    1.8512    2.0261    1.5647 C   0  0  0  0  0  0  0  0  0  0  0  0
    3.1280    1.9886    1.0110 C   0  0  0  0  0  0  0  0  0  0  0  0
    3.5777    0.8358    0.3666 C   0  0  0  0  0  0  0  0  0  0  0  0
    2.7514   -0.2965    0.2553 C   0  0  0  0  0  0  0  0  0  0  0  0
    3.4217   -1.7532   -0.5050 S   0  0  0  0  0  0  0  0  0  0  0  0
    2.4500   -2.2445   -1.8451 N   0  0  0  0  0  1  0  0  0  0  0  0
    3.4878   -2.8628    0.5061 O   0  0  0  0  0  0  0  0  0  0  0  0
    4.8124   -1.4827   -1.0073 O   0  0  0  0  0  0  0  0  0  0  0  0
   -2.3769   -2.1591    1.3855 H   0  0  0  0  0  0  0  0  0  0  0  0
   -4.0951   -1.6697    1.3084 H   0  0  0  0  0  0  0  0  0  0  0  0
   -3.3205   -2.4008   -0.1404 H   0  0  0  0  0  0  0  0  0  0  0  0
   -4.5911    0.5735    0.8176 H   0  0  0  0  0  0  0  0  0  0  0  0
   -3.9835    2.7978   -0.0324 H   0  0  0  0  0  0  0  0  0  0  0  0
   -1.7978    3.1625   -1.1325 H   0  0  0  0  0  0  0  0  0  0  0  0
   -0.2057    1.3049   -1.3785 H   0  0  0  0  0  0  0  0  0  0  0  0
   -0.9591   -2.2330   -0.7378 H   0  0  0  0  0  0  0  0  0  0  0  0
    0.1705   -1.0784   -1.4570 H   0  0  0  0  0  0  0  0  0  0  0  0
    0.9834   -2.3698    0.6360 H   0  0  0  0  0  0  0  0  0  0  0  0
   -0.1668   -1.4503    1.6021 H   0  0  0  0  0  0  0  0  0  0  0  0
    0.0235    0.9692    1.8996 H   0  0  0  0  0  0  0  0  0  0  0  0
    1.5064    2.9195    2.0690 H   0  0  0  0  0  0  0  0  0  0  0  0
    3.7757    2.8523    1.0887 H   0  0  0  0  0  0  0  0  0  0  0  0
    4.5809    0.8302   -0.0382 H   0  0  0  0  0  0  0  0  0  0  0  0
  1  2  1  0
  2  3  2  0
  3  4  1  0
  4  5  2  0
  5  6  1  0
  6  7  2  0
  7  8  1  0
  8  9  1  0
  9 10  1  0
 10 11  2  0
 11 12  1  0
 12 13  2  0
 13 14  1  0
 14 15  2  0
 15 16  1  0
 16 17  1  0
 16 18  2  0
 16 19  2  0
  7  2  1  0
 15 10  1  0
  1 20  1  0
  1 21  1  0
  1 22  1  0
  3 23  1  0
  4 24  1  0
  5 25  1  0
  6 26  1  0
  8 27  1  0
  8 28  1  0
  9 29  1  0
  9 30  1  0
 11 31  1  0
 12 32  1  0
 13 33  1  0
 14 34  1  0
M  RAD  1  17   3
M  END
$$$$
