
     RDKit          3D

 34 35  0  0  0  0  0  0  0  0999 V2000
    2.5425    2.0607   -0.4958 C   0  0  0  0  0  0  0  0  0  0  0  0
    2.8441    0.6015   -0.2724 C   0  0  0  0  0  0  0  0  0  0  0  0
    4.1640    0.2166    0.0238 C   0  0  0  0  0  0  0  0  0  0  0  0
    4.4846   -1.1267    0.2270 C   0  0  0  0  0  0  0  0  0  0  0  0
    3.4948   -2.1036    0.1343 C   0  0  0  0  0  0  0  0  0  0  0  0
    2.1814   -1.7422   -0.1687 C   0  0  0  0  0  0  0  0  0  0  0  0
    1.8404   -0.3957   -0.3894 C   0  0  0  0  0  0  0  0  0  0  0  0
    0.3969   -0.0585   -0.6870 C   0  0  0  0  0  0  0  0  0  0  0  0
   -0.3968    0.1208    0.6130 C   0  0  0  0  0  0  0  0  0  0  0  0
   -1.8406    0.4597    0.3176 C   0  0  0  0  0  0  0  0  0  0  0  0
   -2.1495    1.7949   -0.0016 C   0  0  0  0  0  0  0  0  0  0  0  0
   -3.4562    2.1707   -0.3127 C   0  0  0  0  0  0  0  0  0  0  0  0
   -4.4737    1.2195   -0.3148 C   0  0  0  0  0  0  0  0  0  0  0  0
   -4.1881   -0.1116   -0.0085 C   0  0  0  0  0  0  0  0  0  0  0  0
   -2.8774   -0.5126    0.3036 C   0  0  0  0  0  0  0  0  0  0  0  0
   -2.5881   -2.2167    0.6977 S   0  0  0  0  0  0  0  0  0  0  0  0
   -2.1527   -2.3598    2.3635 N   0  0  0  0  0  1  0  0  0  0  0  0
   -1.4876   -2.7676   -0.1636 O   0  0  0  0  0  0  0  0  0  0  0  0
   -3.8315   -3.0258    0.4555 O   0  0  0  0  0  0  0  0  0  0  0  0
    2.3134    2.2342   -1.5680 H   0  0  0  0  0  0  0  0  0  0  0  0
    3.4046    2.7034   -0.2171 H   0  0  0  0  0  0  0  0  0  0  0  0
    1.6777    2.3763    0.1231 H   0  0  0  0  0  0  0  0  0  0  0  0
    4.9498    0.9579    0.1010 H   0  0  0  0  0  0  0  0  0  0  0  0
    5.5031   -1.4103    0.4589 H   0  0  0  0  0  0  0  0  0  0  0  0
    3.7453   -3.1438    0.2978 H   0  0  0  0  0  0  0  0  0  0  0  0
    1.4259   -2.5158   -0.2313 H   0  0  0  0  0  0  0  0  0  0  0  0
    0.3248    0.8591   -1.3078 H   0  0  0  0  0  0  0  0  0  0  0  0
   -0.0575   -0.8724   -1.2922 H   0  0  0  0  0  0  0  0  0  0  0  0
   -0.3109   -0.7898    1.2382 H   0  0  0  0  0  0  0  0  0  0  0  0
    0.0544    0.9416    1.2120 H   0  0  0  0  0  0  0  0  0  0  0  0
   -1.3715    2.5489   -0.0119 H   0  0  0  0  0  0  0  0  0  0  0  0
   -3.6797    3.2019   -0.5542 H   0  0  0  0  0  0  0  0  0  0  0  0
   -5.4873    1.5136   -0.5548 H   0  0  0  0  0  0  0  0  0  0  0  0
   -4.9984   -0.8286   -0.0151 H   0  0  0  0  0  0  0  0  0  0  0  0
  1  2  1  0
  2  3  2  0
  3  4  1  0
  4  5  2  0
  5  6  1  0
  6  7  2  0
  7  8  1  0
  8  9  1  0
  9 10  1  0
 10 11  2  0
 11 12  1  0
 12 13  2  0
 13 14  1  0
 14 15  2  0
 15 16  1  0
 16 17  1  0
 16 18  2  0
 16 19  2  0
  7  2  1  0
 15 10  1  0
  1 20  1  0
  1 21  1  0
  1 22  1  0
  3 23  1  0
  4 24  1  0
  5 25  1  0
  6 26  1  0
  8 27  1  0
  8 28  1  0
  9 29  1  0
  9 30  1  0
 11 31  1  0
 12 32  1  0
 13 33  1  0
 14 34  1  0
M  RAD  1  17   3
M  END
$$$$
