
     RDKit          3D

 34 35  0  0  0  0  0  0  0  0999 V2000
   -2.9144   -2.1117    0.5220 C   0  0  0  0  0  0  0  0  0  0  0  0
   -2.6494   -0.7395   -0.0419 C   0  0  0  0  0  0  0  0  0  0  0  0
   -3.6882    0.2088   -0.0371 C   0  0  0  0  0  0  0  0  0  0  0  0
   -3.4965    1.4773   -0.5867 C   0  0  0  0  0  0  0  0  0  0  0  0
   -2.2710    1.8135   -1.1586 C   0  0  0  0  0  0  0  0  0  0  0  0
   -1.2318    0.8830   -1.1826 C   0  0  0  0  0  0  0  0  0  0  0  0
   -1.4011   -0.3985   -0.6264 C   0  0  0  0  0  0  0  0  0  0  0  0
   -0.2289   -1.3576   -0.6482 C   0  0  0  0  0  0  0  0  0  0  0  0
    0.6119   -1.2922    0.6398 C   0  0  0  0  0  0  0  0  0  0  0  0
    1.4246   -0.0168    0.7338 C   0  0  0  0  0  0  0  0  0  0  0  0
    0.8083    1.1177    1.2953 C   0  0  0  0  0  0  0  0  0  0  0  0
    1.4796    2.3379    1.3606 C   0  0  0  0  0  0  0  0  0  0  0  0
    2.7800    2.4447    0.8750 C   0  0  0  0  0  0  0  0  0  0  0  0
    3.4179    1.3293    0.3318 C   0  0  0  0  0  0  0  0  0  0  0  0
    2.7598    0.0890    0.2550 C   0  0  0  0  0  0  0  0  0  0  0  0
    3.6638   -1.3033   -0.3726 S   0  0  0  0  0  0  0  0  0  0  0  0
    2.8473   -2.0024   -1.7239 N   0  0  0  0  0  1  0  0  0  0  0  0
    5.0323   -0.8732   -0.8217 O   0  0  0  0  0  0  0  0  0  0  0  0
    3.8196   -2.3316    0.7121 O   0  0  0  0  0  0  0  0  0  0  0  0
   -3.8887   -2.1533    1.0541 H   0  0  0  0  0  0  0  0  0  0  0  0
   -2.9392   -2.8544   -0.3025 H   0  0  0  0  0  0  0  0  0  0  0  0
   -2.1276   -2.3950    1.2491 H   0  0  0  0  0  0  0  0  0  0  0  0
   -4.6530   -0.0332    0.3913 H   0  0  0  0  0  0  0  0  0  0  0  0
   -4.3023    2.1998   -0.5732 H   0  0  0  0  0  0  0  0  0  0  0  0
   -2.1253    2.7977   -1.5847 H   0  0  0  0  0  0  0  0  0  0  0  0
   -0.2855    1.1670   -1.6270 H   0  0  0  0  0  0  0  0  0  0  0  0
    0.4126   -1.1419   -1.5282 H   0  0  0  0  0  0  0  0  0  0  0  0
   -0.5910   -2.3972   -0.7912 H   0  0  0  0  0  0  0  0  0  0  0  0
   -0.0498   -1.3758    1.5282 H   0  0  0  0  0  0  0  0  0  0  0  0
    1.2684   -2.1827    0.6839 H   0  0  0  0  0  0  0  0  0  0  0  0
   -0.2053    1.0600    1.6734 H   0  0  0  0  0  0  0  0  0  0  0  0
    0.9885    3.2033    1.7867 H   0  0  0  0  0  0  0  0  0  0  0  0
    3.2997    3.3928    0.9274 H   0  0  0  0  0  0  0  0  0  0  0  0
    4.4348    1.4385   -0.0211 H   0  0  0  0  0  0  0  0  0  0  0  0
  1  2  1  0
  2  3  2  0
  3  4  1  0
  4  5  2  0
  5  6  1  0
  6  7  2  0
  7  8  1  0
  8  9  1  0
  9 10  1  0
 10 11  2  0
 11 12  1  0
 12 13  2  0
 13 14  1  0
 14 15  2  0
 15 16  1  0
 16 17  1  0
 16 18  2  0
 16 19  2  0
  7  2  1  0
 15 10  1  0
  1 20  1  0
  1 21  1  0
  1 22  1  0
  3 23  1  0
  4 24  1  0
  5 25  1  0
  6 26  1  0
  8 27  1  0
  8 28  1  0
  9 29  1  0
  9 30  1  0
 11 31  1  0
 12 32  1  0
 13 33  1  0
 14 34  1  0
M  RAD  1  17   3
M  END
$$$$
