
     RDKit          3D

 34 35  0  0  0  0  0  0  0  0999 V2000
   -2.5955    1.9105    0.7550 C   0  0  0  0  0  0  0  0  0  0  0  0
   -2.8622    0.5564    0.1505 C   0  0  0  0  0  0  0  0  0  0  0  0
   -4.1642    0.0280    0.2117 C   0  0  0  0  0  0  0  0  0  0  0  0
   -4.4529   -1.2186   -0.3461 C   0  0  0  0  0  0  0  0  0  0  0  0
   -3.4487   -1.9528   -0.9748 C   0  0  0  0  0  0  0  0  0  0  0  0
   -2.1530   -1.4406   -1.0544 C   0  0  0  0  0  0  0  0  0  0  0  0
   -1.8446   -0.1811   -0.5098 C   0  0  0  0  0  0  0  0  0  0  0  0
   -0.4183    0.3123   -0.6003 C   0  0  0  0  0  0  0  0  0  0  0  0
    0.4146   -0.2199    0.5724 C   0  0  0  0  0  0  0  0  0  0  0  0
    1.8412    0.2738    0.4846 C   0  0  0  0  0  0  0  0  0  0  0  0
    2.1144    1.5765    0.9412 C   0  0  0  0  0  0  0  0  0  0  0  0
    3.4028    2.1050    0.8629 C   0  0  0  0  0  0  0  0  0  0  0  0
    4.4372    1.3439    0.3237 C   0  0  0  0  0  0  0  0  0  0  0  0
    4.1869    0.0525   -0.1419 C   0  0  0  0  0  0  0  0  0  0  0  0
    2.8949   -0.4978   -0.0765 C   0  0  0  0  0  0  0  0  0  0  0  0
    2.6508   -2.1497   -0.6722 S   0  0  0  0  0  0  0  0  0  0  0  0
    2.2738   -3.1928    0.6523 N   0  0  0  0  0  1  0  0  0  0  0  0
    1.5328   -2.1783   -1.6750 O   0  0  0  0  0  0  0  0  0  0  0  0
    3.9004   -2.6530   -1.3389 O   0  0  0  0  0  0  0  0  0  0  0  0
   -3.4597    2.2676    1.3547 H   0  0  0  0  0  0  0  0  0  0  0  0
   -2.4052    2.6483   -0.0522 H   0  0  0  0  0  0  0  0  0  0  0  0
   -1.7166    1.8663    1.4306 H   0  0  0  0  0  0  0  0  0  0  0  0
   -4.9607    0.5803    0.6951 H   0  0  0  0  0  0  0  0  0  0  0  0
   -5.4577   -1.6169   -0.2889 H   0  0  0  0  0  0  0  0  0  0  0  0
   -3.6742   -2.9216   -1.4016 H   0  0  0  0  0  0  0  0  0  0  0  0
   -1.3857   -2.0289   -1.5426 H   0  0  0  0  0  0  0  0  0  0  0  0
   -0.3839    1.4217   -0.6204 H   0  0  0  0  0  0  0  0  0  0  0  0
    0.0308   -0.0239   -1.5597 H   0  0  0  0  0  0  0  0  0  0  0  0
    0.3666   -1.3264    0.6000 H   0  0  0  0  0  0  0  0  0  0  0  0
   -0.0317    0.1255    1.5302 H   0  0  0  0  0  0  0  0  0  0  0  0
    1.3225    2.1873    1.3582 H   0  0  0  0  0  0  0  0  0  0  0  0
    3.5988    3.1078    1.2200 H   0  0  0  0  0  0  0  0  0  0  0  0
    5.4367    1.7555    0.2654 H   0  0  0  0  0  0  0  0  0  0  0  0
    5.0098   -0.5169   -0.5534 H   0  0  0  0  0  0  0  0  0  0  0  0
  1  2  1  0
  2  3  2  0
  3  4  1  0
  4  5  2  0
  5  6  1  0
  6  7  2  0
  7  8  1  0
  8  9  1  0
  9 10  1  0
 10 11  2  0
 11 12  1  0
 12 13  2  0
 13 14  1  0
 14 15  2  0
 15 16  1  0
 16 17  1  0
 16 18  2  0
 16 19  2  0
  7  2  1  0
 15 10  1  0
  1 20  1  0
  1 21  1  0
  1 22  1  0
  3 23  1  0
  4 24  1  0
  5 25  1  0
  6 26  1  0
  8 27  1  0
  8 28  1  0
  9 29  1  0
  9 30  1  0
 11 31  1  0
 12 32  1  0
 13 33  1  0
 14 34  1  0
M  RAD  1  17   3
M  END
$$$$
