
     RDKit          3D

 34 35  0  0  0  0  0  0  0  0999 V2000
    2.5190    1.6832   -1.5158 C   0  0  0  0  0  0  0  0  0  0  0  0
    2.8405    0.5259   -0.6062 C   0  0  0  0  0  0  0  0  0  0  0  0
    4.1508    0.3912   -0.1130 C   0  0  0  0  0  0  0  0  0  0  0  0
    4.4898   -0.6733    0.7238 C   0  0  0  0  0  0  0  0  0  0  0  0
    3.5285   -1.6188    1.0769 C   0  0  0  0  0  0  0  0  0  0  0  0
    2.2257   -1.5077    0.5894 C   0  0  0  0  0  0  0  0  0  0  0  0
    1.8671   -0.4496   -0.2651 C   0  0  0  0  0  0  0  0  0  0  0  0
    0.4347   -0.3629   -0.7410 C   0  0  0  0  0  0  0  0  0  0  0  0
   -0.4320    0.3821    0.2818 C   0  0  0  0  0  0  0  0  0  0  0  0
   -1.8649    0.4712   -0.1931 C   0  0  0  0  0  0  0  0  0  0  0  0
   -2.1859    1.4735   -1.1271 C   0  0  0  0  0  0  0  0  0  0  0  0
   -3.4819    1.5937   -1.6285 C   0  0  0  0  0  0  0  0  0  0  0  0
   -4.4762    0.7130   -1.2093 C   0  0  0  0  0  0  0  0  0  0  0  0
   -4.1780   -0.2930   -0.2895 C   0  0  0  0  0  0  0  0  0  0  0  0
   -2.8774   -0.4346    0.2250 C   0  0  0  0  0  0  0  0  0  0  0  0
   -2.5718   -1.7251    1.4016 S   0  0  0  0  0  0  0  0  0  0  0  0
   -2.2242   -1.0309    2.9449 N   0  0  0  0  0  1  0  0  0  0  0  0
   -3.7819   -2.6070    1.5337 O   0  0  0  0  0  0  0  0  0  0  0  0
   -1.4143   -2.5710    0.9532 O   0  0  0  0  0  0  0  0  0  0  0  0
    3.3501    2.4194   -1.5497 H   0  0  0  0  0  0  0  0  0  0  0  0
    1.6151    2.2174   -1.1577 H   0  0  0  0  0  0  0  0  0  0  0  0
    2.3443    1.3100   -2.5466 H   0  0  0  0  0  0  0  0  0  0  0  0
    4.9145    1.1136   -0.3737 H   0  0  0  0  0  0  0  0  0  0  0  0
    5.5004   -0.7640    1.1007 H   0  0  0  0  0  0  0  0  0  0  0  0
    3.7930   -2.4402    1.7304 H   0  0  0  0  0  0  0  0  0  0  0  0
    1.4922   -2.2499    0.8795 H   0  0  0  0  0  0  0  0  0  0  0  0
    0.0321   -1.3872   -0.8954 H   0  0  0  0  0  0  0  0  0  0  0  0
    0.3758    0.1396   -1.7292 H   0  0  0  0  0  0  0  0  0  0  0  0
   -0.3598   -0.1116    1.2709 H   0  0  0  0  0  0  0  0  0  0  0  0
   -0.0323    1.4093    0.4273 H   0  0  0  0  0  0  0  0  0  0  0  0
   -1.4255    2.1647   -1.4709 H   0  0  0  0  0  0  0  0  0  0  0  0
   -3.7150    2.3709   -2.3449 H   0  0  0  0  0  0  0  0  0  0  0  0
   -5.4817    0.8091   -1.5984 H   0  0  0  0  0  0  0  0  0  0  0  0
   -4.9705   -0.9613    0.0204 H   0  0  0  0  0  0  0  0  0  0  0  0
  1  2  1  0
  2  3  2  0
  3  4  1  0
  4  5  2  0
  5  6  1  0
  6  7  2  0
  7  8  1  0
  8  9  1  0
  9 10  1  0
 10 11  2  0
 11 12  1  0
 12 13  2  0
 13 14  1  0
 14 15  2  0
 15 16  1  0
 16 17  1  0
 16 18  2  0
 16 19  2  0
  7  2  1  0
 15 10  1  0
  1 20  1  0
  1 21  1  0
  1 22  1  0
  3 23  1  0
  4 24  1  0
  5 25  1  0
  6 26  1  0
  8 27  1  0
  8 28  1  0
  9 29  1  0
  9 30  1  0
 11 31  1  0
 12 32  1  0
 13 33  1  0
 14 34  1  0
M  RAD  1  17   3
M  END
$$$$
