
     RDKit          3D

 34 35  0  0  0  0  0  0  0  0999 V2000
    3.1606   -1.6831    0.5787 C   0  0  0  0  0  0  0  0  0  0  0  0
    2.7313   -0.2956    0.1767 C   0  0  0  0  0  0  0  0  0  0  0  0
    3.6165    0.4979   -0.5751 C   0  0  0  0  0  0  0  0  0  0  0  0
    3.2740    1.8028   -0.9327 C   0  0  0  0  0  0  0  0  0  0  0  0
    2.0501    2.3380   -0.5361 C   0  0  0  0  0  0  0  0  0  0  0  0
    1.1631    1.5705    0.2190 C   0  0  0  0  0  0  0  0  0  0  0  0
    1.4849    0.2498    0.5831 C   0  0  0  0  0  0  0  0  0  0  0  0
    0.4707   -0.5507    1.3737 C   0  0  0  0  0  0  0  0  0  0  0  0
   -0.4486   -1.3945    0.4719 C   0  0  0  0  0  0  0  0  0  0  0  0
   -1.4447   -0.5456   -0.2915 C   0  0  0  0  0  0  0  0  0  0  0  0
   -1.0385   -0.0011   -1.5247 C   0  0  0  0  0  0  0  0  0  0  0  0
   -1.8852    0.8348   -2.2514 C   0  0  0  0  0  0  0  0  0  0  0  0
   -3.1546    1.1345   -1.7646 C   0  0  0  0  0  0  0  0  0  0  0  0
   -3.5862    0.5911   -0.5543 C   0  0  0  0  0  0  0  0  0  0  0  0
   -2.7488   -0.2536    0.1958 C   0  0  0  0  0  0  0  0  0  0  0  0
   -3.3969   -0.9723    1.6834 S   0  0  0  0  0  0  0  0  0  0  0  0
   -2.4044   -0.5709    3.0380 N   0  0  0  0  0  1  0  0  0  0  0  0
   -3.4661   -2.4657    1.5313 O   0  0  0  0  0  0  0  0  0  0  0  0
   -4.7835   -0.4554    1.9474 O   0  0  0  0  0  0  0  0  0  0  0  0
    4.0956   -1.9871    0.0616 H   0  0  0  0  0  0  0  0  0  0  0  0
    2.3808   -2.4256    0.3168 H   0  0  0  0  0  0  0  0  0  0  0  0
    3.3456   -1.7130    1.6728 H   0  0  0  0  0  0  0  0  0  0  0  0
    4.5782    0.1079   -0.8851 H   0  0  0  0  0  0  0  0  0  0  0  0
    3.9621    2.4020   -1.5151 H   0  0  0  0  0  0  0  0  0  0  0  0
    1.7873    3.3505   -0.8143 H   0  0  0  0  0  0  0  0  0  0  0  0
    0.2145    2.0041    0.5120 H   0  0  0  0  0  0  0  0  0  0  0  0
    0.9904   -1.2218    2.0892 H   0  0  0  0  0  0  0  0  0  0  0  0
   -0.1400    0.1348    1.9979 H   0  0  0  0  0  0  0  0  0  0  0  0
   -0.9679   -2.1477    1.0955 H   0  0  0  0  0  0  0  0  0  0  0  0
    0.1621   -1.9835   -0.2453 H   0  0  0  0  0  0  0  0  0  0  0  0
   -0.0528   -0.2150   -1.9201 H   0  0  0  0  0  0  0  0  0  0  0  0
   -1.5545    1.2530   -3.1933 H   0  0  0  0  0  0  0  0  0  0  0  0
   -3.8107    1.7830   -2.3308 H   0  0  0  0  0  0  0  0  0  0  0  0
   -4.5843    0.8277   -0.2103 H   0  0  0  0  0  0  0  0  0  0  0  0
  1  2  1  0
  2  3  2  0
  3  4  1  0
  4  5  2  0
  5  6  1  0
  6  7  2  0
  7  8  1  0
  8  9  1  0
  9 10  1  0
 10 11  2  0
 11 12  1  0
 12 13  2  0
 13 14  1  0
 14 15  2  0
 15 16  1  0
 16 17  1  0
 16 18  2  0
 16 19  2  0
  7  2  1  0
 15 10  1  0
  1 20  1  0
  1 21  1  0
  1 22  1  0
  3 23  1  0
  4 24  1  0
  5 25  1  0
  6 26  1  0
  8 27  1  0
  8 28  1  0
  9 29  1  0
  9 30  1  0
 11 31  1  0
 12 32  1  0
 13 33  1  0
 14 34  1  0
M  RAD  1  17   3
M  END
$$$$
