
     RDKit          3D

 34 35  0  0  0  0  0  0  0  0999 V2000
   -2.7637    1.7674    0.4422 C   0  0  0  0  0  0  0  0  0  0  0  0
   -2.8993    0.2883    0.1888 C   0  0  0  0  0  0  0  0  0  0  0  0
   -4.1604   -0.2307   -0.1552 C   0  0  0  0  0  0  0  0  0  0  0  0
   -4.3281   -1.5968   -0.3873 C   0  0  0  0  0  0  0  0  0  0  0  0
   -3.2421   -2.4635   -0.2763 C   0  0  0  0  0  0  0  0  0  0  0  0
   -1.9852   -1.9687    0.0740 C   0  0  0  0  0  0  0  0  0  0  0  0
   -1.7981   -0.5974    0.3243 C   0  0  0  0  0  0  0  0  0  0  0  0
   -0.4091   -0.1125    0.6730 C   0  0  0  0  0  0  0  0  0  0  0  0
    0.4000    0.1733   -0.5982 C   0  0  0  0  0  0  0  0  0  0  0  0
    1.7892    0.6598   -0.2516 C   0  0  0  0  0  0  0  0  0  0  0  0
    1.9427    2.0147    0.0960 C   0  0  0  0  0  0  0  0  0  0  0  0
    3.1912    2.5229    0.4543 C   0  0  0  0  0  0  0  0  0  0  0  0
    4.3046    1.6864    0.4759 C   0  0  0  0  0  0  0  0  0  0  0  0
    4.1736    0.3379    0.1421 C   0  0  0  0  0  0  0  0  0  0  0  0
    2.9238   -0.1958   -0.2177 C   0  0  0  0  0  0  0  0  0  0  0  0
    2.8319   -1.9141   -0.6447 S   0  0  0  0  0  0  0  0  0  0  0  0
    2.4656   -2.0741   -2.3254 N   0  0  0  0  0  1  0  0  0  0  0  0
    1.7713   -2.5946    0.1730 O   0  0  0  0  0  0  0  0  0  0  0  0
    4.1472   -2.5893   -0.3737 O   0  0  0  0  0  0  0  0  0  0  0  0
   -2.5874    1.9459    1.5235 H   0  0  0  0  0  0  0  0  0  0  0  0
   -1.9193    2.1845   -0.1441 H   0  0  0  0  0  0  0  0  0  0  0  0
   -3.6810    2.3187    0.1447 H   0  0  0  0  0  0  0  0  0  0  0  0
   -5.0188    0.4234   -0.2474 H   0  0  0  0  0  0  0  0  0  0  0  0
   -5.3026   -1.9839   -0.6558 H   0  0  0  0  0  0  0  0  0  0  0  0
   -3.3740   -3.5216   -0.4623 H   0  0  0  0  0  0  0  0  0  0  0  0
   -1.1530   -2.6578    0.1502 H   0  0  0  0  0  0  0  0  0  0  0  0
    0.1115   -0.8834    1.2811 H   0  0  0  0  0  0  0  0  0  0  0  0
   -0.4552    0.7965    1.3085 H   0  0  0  0  0  0  0  0  0  0  0  0
    0.4319   -0.7303   -1.2384 H   0  0  0  0  0  0  0  0  0  0  0  0
   -0.1184    0.9512   -1.1999 H   0  0  0  0  0  0  0  0  0  0  0  0
    1.0880    2.6807    0.0917 H   0  0  0  0  0  0  0  0  0  0  0  0
    3.2948    3.5678    0.7172 H   0  0  0  0  0  0  0  0  0  0  0  0
    5.2729    2.0833    0.7527 H   0  0  0  0  0  0  0  0  0  0  0  0
    5.0558   -0.2881    0.1649 H   0  0  0  0  0  0  0  0  0  0  0  0
  1  2  1  0
  2  3  2  0
  3  4  1  0
  4  5  2  0
  5  6  1  0
  6  7  2  0
  7  8  1  0
  8  9  1  0
  9 10  1  0
 10 11  2  0
 11 12  1  0
 12 13  2  0
 13 14  1  0
 14 15  2  0
 15 16  1  0
 16 17  1  0
 16 18  2  0
 16 19  2  0
  7  2  1  0
 15 10  1  0
  1 20  1  0
  1 21  1  0
  1 22  1  0
  3 23  1  0
  4 24  1  0
  5 25  1  0
  6 26  1  0
  8 27  1  0
  8 28  1  0
  9 29  1  0
  9 30  1  0
 11 31  1  0
 12 32  1  0
 13 33  1  0
 14 34  1  0
M  RAD  1  17   3
M  END
$$$$
