
     RDKit          3D

 34 35  0  0  0  0  0  0  0  0999 V2000
    2.8924   -2.1733    0.1100 C   0  0  0  0  0  0  0  0  0  0  0  0
    2.6625   -0.6965   -0.0836 C   0  0  0  0  0  0  0  0  0  0  0  0
    3.6582    0.2058    0.3320 C   0  0  0  0  0  0  0  0  0  0  0  0
    3.5024    1.5785    0.1337 C   0  0  0  0  0  0  0  0  0  0  0  0
    2.3578    2.0691   -0.4916 C   0  0  0  0  0  0  0  0  0  0  0  0
    1.3638    1.1892   -0.9205 C   0  0  0  0  0  0  0  0  0  0  0  0
    1.4969   -0.1977   -0.7228 C   0  0  0  0  0  0  0  0  0  0  0  0
    0.3719   -1.1048   -1.1766 C   0  0  0  0  0  0  0  0  0  0  0  0
   -0.6415   -1.3956   -0.0546 C   0  0  0  0  0  0  0  0  0  0  0  0
   -1.5016   -0.1917    0.2719 C   0  0  0  0  0  0  0  0  0  0  0  0
   -1.0077    0.7370    1.2077 C   0  0  0  0  0  0  0  0  0  0  0  0
   -1.7220    1.8951    1.5119 C   0  0  0  0  0  0  0  0  0  0  0  0
   -2.9451    2.1418    0.8943 C   0  0  0  0  0  0  0  0  0  0  0  0
   -3.4637    1.2264   -0.0219 C   0  0  0  0  0  0  0  0  0  0  0  0
   -2.7601    0.0524   -0.3445 C   0  0  0  0  0  0  0  0  0  0  0  0
   -3.5210   -1.1035   -1.4555 S   0  0  0  0  0  0  0  0  0  0  0  0
   -2.5017   -1.4034   -2.8165 N   0  0  0  0  0  1  0  0  0  0  0  0
   -4.8274   -0.5560   -1.9586 O   0  0  0  0  0  0  0  0  0  0  0  0
   -3.7916   -2.3924   -0.7319 O   0  0  0  0  0  0  0  0  0  0  0  0
    3.0564   -2.6567   -0.8757 H   0  0  0  0  0  0  0  0  0  0  0  0
    2.0221   -2.6429    0.6100 H   0  0  0  0  0  0  0  0  0  0  0  0
    3.7841   -2.3682    0.7432 H   0  0  0  0  0  0  0  0  0  0  0  0
    4.5618   -0.1525    0.8098 H   0  0  0  0  0  0  0  0  0  0  0  0
    4.2739    2.2632    0.4618 H   0  0  0  0  0  0  0  0  0  0  0  0
    2.2398    3.1341   -0.6446 H   0  0  0  0  0  0  0  0  0  0  0  0
    0.4794    1.5922   -1.3993 H   0  0  0  0  0  0  0  0  0  0  0  0
    0.7850   -2.0656   -1.5487 H   0  0  0  0  0  0  0  0  0  0  0  0
   -0.1479   -0.6479   -2.0446 H   0  0  0  0  0  0  0  0  0  0  0  0
   -0.1073   -1.7281    0.8609 H   0  0  0  0  0  0  0  0  0  0  0  0
   -1.2676   -2.2587   -0.3532 H   0  0  0  0  0  0  0  0  0  0  0  0
   -0.0551    0.5694    1.6957 H   0  0  0  0  0  0  0  0  0  0  0  0
   -1.3242    2.6039    2.2266 H   0  0  0  0  0  0  0  0  0  0  0  0
   -3.4985    3.0410    1.1325 H   0  0  0  0  0  0  0  0  0  0  0  0
   -4.4247    1.4366   -0.4721 H   0  0  0  0  0  0  0  0  0  0  0  0
  1  2  1  0
  2  3  2  0
  3  4  1  0
  4  5  2  0
  5  6  1  0
  6  7  2  0
  7  8  1  0
  8  9  1  0
  9 10  1  0
 10 11  2  0
 11 12  1  0
 12 13  2  0
 13 14  1  0
 14 15  2  0
 15 16  1  0
 16 17  1  0
 16 18  2  0
 16 19  2  0
  7  2  1  0
 15 10  1  0
  1 20  1  0
  1 21  1  0
  1 22  1  0
  3 23  1  0
  4 24  1  0
  5 25  1  0
  6 26  1  0
  8 27  1  0
  8 28  1  0
  9 29  1  0
  9 30  1  0
 11 31  1  0
 12 32  1  0
 13 33  1  0
 14 34  1  0
M  RAD  1  17   3
M  END
$$$$
