
     RDKit          3D

 34 35  0  0  0  0  0  0  0  0999 V2000
   -3.3731   -1.2438   -0.4821 C   0  0  0  0  0  0  0  0  0  0  0  0
   -2.7243    0.1125   -0.3799 C   0  0  0  0  0  0  0  0  0  0  0  0
   -3.3448    1.2106   -1.0024 C   0  0  0  0  0  0  0  0  0  0  0  0
   -2.7984    2.4906   -0.8973 C   0  0  0  0  0  0  0  0  0  0  0  0
   -1.6332    2.6951   -0.1610 C   0  0  0  0  0  0  0  0  0  0  0  0
   -1.0089    1.6204    0.4727 C   0  0  0  0  0  0  0  0  0  0  0  0
   -1.5382    0.3204    0.3725 C   0  0  0  0  0  0  0  0  0  0  0  0
   -0.8010   -0.8156    1.0512 C   0  0  0  0  0  0  0  0  0  0  0  0
    0.1897   -1.5234    0.1089 C   0  0  0  0  0  0  0  0  0  0  0  0
    1.4071   -0.6730   -0.1920 C   0  0  0  0  0  0  0  0  0  0  0  0
    1.3256    0.2404   -1.2602 C   0  0  0  0  0  0  0  0  0  0  0  0
    2.3887    1.0926   -1.5556 C   0  0  0  0  0  0  0  0  0  0  0  0
    3.5544    1.0419   -0.7960 C   0  0  0  0  0  0  0  0  0  0  0  0
    3.6654    0.1315    0.2553 C   0  0  0  0  0  0  0  0  0  0  0  0
    2.6056   -0.7369    0.5716 C   0  0  0  0  0  0  0  0  0  0  0  0
    2.8510   -1.9231    1.8686 S   0  0  0  0  0  0  0  0  0  0  0  0
    1.6481   -1.7451    3.0943 N   0  0  0  0  0  1  0  0  0  0  0  0
    4.1999   -1.7268    2.5022 O   0  0  0  0  0  0  0  0  0  0  0  0
    2.7904   -3.3117    1.2976 O   0  0  0  0  0  0  0  0  0  0  0  0
   -4.2076   -1.2430   -1.2152 H   0  0  0  0  0  0  0  0  0  0  0  0
   -3.7827   -1.5359    0.5074 H   0  0  0  0  0  0  0  0  0  0  0  0
   -2.6397   -2.0046   -0.8159 H   0  0  0  0  0  0  0  0  0  0  0  0
   -4.2574    1.0785   -1.5705 H   0  0  0  0  0  0  0  0  0  0  0  0
   -3.2830    3.3269   -1.3845 H   0  0  0  0  0  0  0  0  0  0  0  0
   -1.2120    3.6889   -0.0806 H   0  0  0  0  0  0  0  0  0  0  0  0
   -0.1008    1.8006    1.0354 H   0  0  0  0  0  0  0  0  0  0  0  0
   -0.2632   -0.4305    1.9429 H   0  0  0  0  0  0  0  0  0  0  0  0
   -1.5262   -1.5610    1.4395 H   0  0  0  0  0  0  0  0  0  0  0  0
   -0.3185   -1.7918   -0.8418 H   0  0  0  0  0  0  0  0  0  0  0  0
    0.4852   -2.4898    0.5613 H   0  0  0  0  0  0  0  0  0  0  0  0
    0.4261    0.3024   -1.8608 H   0  0  0  0  0  0  0  0  0  0  0  0
    2.3069    1.7959   -2.3743 H   0  0  0  0  0  0  0  0  0  0  0  0
    4.3789    1.7038   -1.0275 H   0  0  0  0  0  0  0  0  0  0  0  0
    4.5900    0.1029    0.8163 H   0  0  0  0  0  0  0  0  0  0  0  0
  1  2  1  0
  2  3  2  0
  3  4  1  0
  4  5  2  0
  5  6  1  0
  6  7  2  0
  7  8  1  0
  8  9  1  0
  9 10  1  0
 10 11  2  0
 11 12  1  0
 12 13  2  0
 13 14  1  0
 14 15  2  0
 15 16  1  0
 16 17  1  0
 16 18  2  0
 16 19  2  0
  7  2  1  0
 15 10  1  0
  1 20  1  0
  1 21  1  0
  1 22  1  0
  3 23  1  0
  4 24  1  0
  5 25  1  0
  6 26  1  0
  8 27  1  0
  8 28  1  0
  9 29  1  0
  9 30  1  0
 11 31  1  0
 12 32  1  0
 13 33  1  0
 14 34  1  0
M  RAD  1  17   3
M  END
$$$$
