
     RDKit          3D

 34 35  0  0  0  0  0  0  0  0999 V2000
   -2.2777    1.2114   -2.0739 C   0  0  0  0  0  0  0  0  0  0  0  0
   -2.7339    0.2715   -0.9882 C   0  0  0  0  0  0  0  0  0  0  0  0
   -4.0183   -0.2953   -1.0738 C   0  0  0  0  0  0  0  0  0  0  0  0
   -4.4805   -1.1623   -0.0822 C   0  0  0  0  0  0  0  0  0  0  0  0
   -3.6703   -1.4726    1.0086 C   0  0  0  0  0  0  0  0  0  0  0  0
   -2.3968   -0.9121    1.1161 C   0  0  0  0  0  0  0  0  0  0  0  0
   -1.9174   -0.0265    0.1342 C   0  0  0  0  0  0  0  0  0  0  0  0
   -0.5197    0.5294    0.2873 C   0  0  0  0  0  0  0  0  0  0  0  0
    0.5149   -0.4346   -0.3064 C   0  0  0  0  0  0  0  0  0  0  0  0
    1.9134    0.1202   -0.1556 C   0  0  0  0  0  0  0  0  0  0  0  0
    2.3421    1.0825   -1.0886 C   0  0  0  0  0  0  0  0  0  0  0  0
    3.6095    1.6566   -0.9910 C   0  0  0  0  0  0  0  0  0  0  0  0
    4.4668    1.2829    0.0412 C   0  0  0  0  0  0  0  0  0  0  0  0
    4.0592    0.3360    0.9815 C   0  0  0  0  0  0  0  0  0  0  0  0
    2.7844   -0.2517    0.9043 C   0  0  0  0  0  0  0  0  0  0  0  0
    2.3371   -1.4588    2.1233 S   0  0  0  0  0  0  0  0  0  0  0  0
    2.1973   -3.0107    1.3771 N   0  0  0  0  0  1  0  0  0  0  0  0
    1.0321   -1.0856    2.7669 O   0  0  0  0  0  0  0  0  0  0  0  0
    3.3904   -1.5339    3.1932 O   0  0  0  0  0  0  0  0  0  0  0  0
   -2.9763    1.2078   -2.9376 H   0  0  0  0  0  0  0  0  0  0  0  0
   -2.2260    2.2457   -1.6744 H   0  0  0  0  0  0  0  0  0  0  0  0
   -1.2791    0.9105   -2.4519 H   0  0  0  0  0  0  0  0  0  0  0  0
   -4.6656   -0.0689   -1.9120 H   0  0  0  0  0  0  0  0  0  0  0  0
   -5.4691   -1.5959   -0.1613 H   0  0  0  0  0  0  0  0  0  0  0  0
   -4.0293   -2.1496    1.7731 H   0  0  0  0  0  0  0  0  0  0  0  0
   -1.7807   -1.1698    1.9688 H   0  0  0  0  0  0  0  0  0  0  0  0
   -0.4348    1.5252   -0.1959 H   0  0  0  0  0  0  0  0  0  0  0  0
   -0.3014    0.6937    1.3645 H   0  0  0  0  0  0  0  0  0  0  0  0
    0.2994   -0.5900   -1.3860 H   0  0  0  0  0  0  0  0  0  0  0  0
    0.4184   -1.4321    0.1660 H   0  0  0  0  0  0  0  0  0  0  0  0
    1.6881    1.3916   -1.8952 H   0  0  0  0  0  0  0  0  0  0  0  0
    3.9268    2.3940   -1.7171 H   0  0  0  0  0  0  0  0  0  0  0  0
    5.4506    1.7284    0.1139 H   0  0  0  0  0  0  0  0  0  0  0  0
    4.7466    0.0627    1.7711 H   0  0  0  0  0  0  0  0  0  0  0  0
  1  2  1  0
  2  3  2  0
  3  4  1  0
  4  5  2  0
  5  6  1  0
  6  7  2  0
  7  8  1  0
  8  9  1  0
  9 10  1  0
 10 11  2  0
 11 12  1  0
 12 13  2  0
 13 14  1  0
 14 15  2  0
 15 16  1  0
 16 17  1  0
 16 18  2  0
 16 19  2  0
  7  2  1  0
 15 10  1  0
  1 20  1  0
  1 21  1  0
  1 22  1  0
  3 23  1  0
  4 24  1  0
  5 25  1  0
  6 26  1  0
  8 27  1  0
  8 28  1  0
  9 29  1  0
  9 30  1  0
 11 31  1  0
 12 32  1  0
 13 33  1  0
 14 34  1  0
M  RAD  1  17   3
M  END
$$$$
