
     RDKit          3D

 34 35  0  0  0  0  0  0  0  0999 V2000
    2.1085    0.8012    0.6279 C   0  0  0  0  0  0  0  0  0  0  0  0
    1.8661    0.2121   -0.7371 C   0  0  0  0  0  0  0  0  0  0  0  0
    2.3102    0.9215   -1.8680 C   0  0  0  0  0  0  0  0  0  0  0  0
    2.1315    0.4021   -3.1508 C   0  0  0  0  0  0  0  0  0  0  0  0
    1.5097   -0.8325   -3.3245 C   0  0  0  0  0  0  0  0  0  0  0  0
    1.0586   -1.5501   -2.2163 C   0  0  0  0  0  0  0  0  0  0  0  0
    1.2244   -1.0433   -0.9137 C   0  0  0  0  0  0  0  0  0  0  0  0
    0.6938   -1.8664    0.2416 C   0  0  0  0  0  0  0  0  0  0  0  0
   -0.8314   -1.7271    0.4087 C   0  0  0  0  0  0  0  0  0  0  0  0
   -1.2196   -0.4669    1.1566 C   0  0  0  0  0  0  0  0  0  0  0  0
   -0.9021   -0.4007    2.5274 C   0  0  0  0  0  0  0  0  0  0  0  0
   -1.1883    0.7407    3.2750 C   0  0  0  0  0  0  0  0  0  0  0  0
   -1.8047    1.8325    2.6707 C   0  0  0  0  0  0  0  0  0  0  0  0
   -2.1517    1.7813    1.3208 C   0  0  0  0  0  0  0  0  0  0  0  0
   -1.8785    0.6385    0.5484 C   0  0  0  0  0  0  0  0  0  0  0  0
   -2.4198    0.6208   -1.1399 S   0  0  0  0  0  0  0  0  0  0  0  0
   -3.2627    2.0796   -1.5266 N   0  0  0  0  0  1  0  0  0  0  0  0
   -1.2382    0.5009   -2.0574 O   0  0  0  0  0  0  0  0  0  0  0  0
   -3.3543   -0.5352   -1.3605 O   0  0  0  0  0  0  0  0  0  0  0  0
    2.7463    0.1198    1.2282 H   0  0  0  0  0  0  0  0  0  0  0  0
    1.1460    0.9704    1.1469 H   0  0  0  0  0  0  0  0  0  0  0  0
    2.6296    1.7802    0.5656 H   0  0  0  0  0  0  0  0  0  0  0  0
    2.8016    1.8805   -1.7595 H   0  0  0  0  0  0  0  0  0  0  0  0
    2.4784    0.9578   -4.0123 H   0  0  0  0  0  0  0  0  0  0  0  0
    1.3725   -1.2331   -4.3205 H   0  0  0  0  0  0  0  0  0  0  0  0
    0.5700   -2.5039   -2.3740 H   0  0  0  0  0  0  0  0  0  0  0  0
    1.2174   -1.6350    1.1909 H   0  0  0  0  0  0  0  0  0  0  0  0
    0.9219   -2.9363    0.0404 H   0  0  0  0  0  0  0  0  0  0  0  0
   -1.3256   -1.8137   -0.5774 H   0  0  0  0  0  0  0  0  0  0  0  0
   -1.1960   -2.5974    0.9971 H   0  0  0  0  0  0  0  0  0  0  0  0
   -0.4178   -1.2362    3.0181 H   0  0  0  0  0  0  0  0  0  0  0  0
   -0.9281    0.7793    4.3249 H   0  0  0  0  0  0  0  0  0  0  0  0
   -2.0238    2.7187    3.2522 H   0  0  0  0  0  0  0  0  0  0  0  0
   -2.6438    2.6400    0.8854 H   0  0  0  0  0  0  0  0  0  0  0  0
  1  2  1  0
  2  3  2  0
  3  4  1  0
  4  5  2  0
  5  6  1  0
  6  7  2  0
  7  8  1  0
  8  9  1  0
  9 10  1  0
 10 11  2  0
 11 12  1  0
 12 13  2  0
 13 14  1  0
 14 15  2  0
 15 16  1  0
 16 17  1  0
 16 18  2  0
 16 19  2  0
  7  2  1  0
 15 10  1  0
  1 20  1  0
  1 21  1  0
  1 22  1  0
  3 23  1  0
  4 24  1  0
  5 25  1  0
  6 26  1  0
  8 27  1  0
  8 28  1  0
  9 29  1  0
  9 30  1  0
 11 31  1  0
 12 32  1  0
 13 33  1  0
 14 34  1  0
M  RAD  1  17   3
M  END
$$$$
