
     RDKit          3D

 34 35  0  0  0  0  0  0  0  0999 V2000
   -2.1280   -0.9693   -0.2969 C   0  0  0  0  0  0  0  0  0  0  0  0
   -1.8447    0.0615    0.7643 C   0  0  0  0  0  0  0  0  0  0  0  0
   -2.2543   -0.1980    2.0851 C   0  0  0  0  0  0  0  0  0  0  0  0
   -2.0372    0.7392    3.0959 C   0  0  0  0  0  0  0  0  0  0  0  0
   -1.4108    1.9490    2.8044 C   0  0  0  0  0  0  0  0  0  0  0  0
   -0.9934    2.2241    1.5019 C   0  0  0  0  0  0  0  0  0  0  0  0
   -1.1982    1.2916    0.4676 C   0  0  0  0  0  0  0  0  0  0  0  0
   -0.7029    1.6480   -0.9185 C   0  0  0  0  0  0  0  0  0  0  0  0
    0.8166    1.4427   -1.0686 C   0  0  0  0  0  0  0  0  0  0  0  0
    1.1824   -0.0044   -1.3335 C   0  0  0  0  0  0  0  0  0  0  0  0
    0.8238   -0.5472   -2.5830 C   0  0  0  0  0  0  0  0  0  0  0  0
    1.0876   -1.8820   -2.8866 C   0  0  0  0  0  0  0  0  0  0  0  0
    1.7222   -2.6963   -1.9532 C   0  0  0  0  0  0  0  0  0  0  0  0
    2.1097   -2.1751   -0.7188 C   0  0  0  0  0  0  0  0  0  0  0  0
    1.8595   -0.8304   -0.3928 C   0  0  0  0  0  0  0  0  0  0  0  0
    2.4515   -0.2231    1.1643 S   0  0  0  0  0  0  0  0  0  0  0  0
    3.3061   -1.4599    2.0176 N   0  0  0  0  0  1  0  0  0  0  0  0
    1.2981    0.2255    2.0132 O   0  0  0  0  0  0  0  0  0  0  0  0
    3.3920    0.9265    0.9355 O   0  0  0  0  0  0  0  0  0  0  0  0
   -2.6467   -1.8576    0.1221 H   0  0  0  0  0  0  0  0  0  0  0  0
   -2.7837   -0.5372   -1.0810 H   0  0  0  0  0  0  0  0  0  0  0  0
   -1.1814   -1.3209   -0.7496 H   0  0  0  0  0  0  0  0  0  0  0  0
   -2.7486   -1.1283    2.3364 H   0  0  0  0  0  0  0  0  0  0  0  0
   -2.3579    0.5273    4.1077 H   0  0  0  0  0  0  0  0  0  0  0  0
   -1.2436    2.6742    3.5903 H   0  0  0  0  0  0  0  0  0  0  0  0
   -0.5005    3.1670    1.2984 H   0  0  0  0  0  0  0  0  0  0  0  0
   -0.9252    2.7223   -1.1020 H   0  0  0  0  0  0  0  0  0  0  0  0
   -1.2549    1.1016   -1.7096 H   0  0  0  0  0  0  0  0  0  0  0  0
    1.3403    1.8670   -0.1912 H   0  0  0  0  0  0  0  0  0  0  0  0
    1.1630    2.0452   -1.9367 H   0  0  0  0  0  0  0  0  0  0  0  0
    0.3246    0.0661   -3.3234 H   0  0  0  0  0  0  0  0  0  0  0  0
    0.7958   -2.2864   -3.8473 H   0  0  0  0  0  0  0  0  0  0  0  0
    1.9239   -3.7331   -2.1899 H   0  0  0  0  0  0  0  0  0  0  0  0
    2.6149   -2.8298   -0.0222 H   0  0  0  0  0  0  0  0  0  0  0  0
  1  2  1  0
  2  3  2  0
  3  4  1  0
  4  5  2  0
  5  6  1  0
  6  7  2  0
  7  8  1  0
  8  9  1  0
  9 10  1  0
 10 11  2  0
 11 12  1  0
 12 13  2  0
 13 14  1  0
 14 15  2  0
 15 16  1  0
 16 17  1  0
 16 18  2  0
 16 19  2  0
  7  2  1  0
 15 10  1  0
  1 20  1  0
  1 21  1  0
  1 22  1  0
  3 23  1  0
  4 24  1  0
  5 25  1  0
  6 26  1  0
  8 27  1  0
  8 28  1  0
  9 29  1  0
  9 30  1  0
 11 31  1  0
 12 32  1  0
 13 33  1  0
 14 34  1  0
M  RAD  1  17   3
M  END
$$$$
