
     RDKit          3D

 30 31  0  0  0  0  0  0  0  0999 V2000
    3.1134   -2.1915   -0.9152 N   0  0  0  0  0  1  0  0  0  0  0  0
    3.7258   -1.0654   -0.2902 C   0  0  0  0  0  0  0  0  0  0  0  0
    5.1121   -0.8981   -0.3932 C   0  0  0  0  0  0  0  0  0  0  0  0
    5.7342    0.2044    0.1973 C   0  0  0  0  0  0  0  0  0  0  0  0
    4.9735    1.1482    0.8902 C   0  0  0  0  0  0  0  0  0  0  0  0
    3.5892    0.9897    0.9986 C   0  0  0  0  0  0  0  0  0  0  0  0
    2.9524   -0.1232    0.4217 C   0  0  0  0  0  0  0  0  0  0  0  0
    1.4525   -0.2565    0.5242 C   0  0  0  0  0  0  0  0  0  0  0  0
    0.7716    0.3897   -0.6840 C   0  0  0  0  0  0  0  0  0  0  0  0
   -0.6856    0.2604   -0.5798 C   0  0  0  0  0  0  0  0  0  0  0  0
   -1.8832    0.1535   -0.4932 C   0  0  0  0  0  0  0  0  0  0  0  0
   -3.3127    0.0251   -0.3886 C   0  0  0  0  0  0  0  0  0  0  0  0
   -4.0630    1.0226    0.2494 C   0  0  0  0  0  0  0  0  0  0  0  0
   -5.4525    0.8960    0.3507 C   0  0  0  0  0  0  0  0  0  0  0  0
   -6.0946   -0.2253   -0.1841 C   0  0  0  0  0  0  0  0  0  0  0  0
   -5.3480   -1.2216   -0.8209 C   0  0  0  0  0  0  0  0  0  0  0  0
   -3.9584   -1.0981   -0.9239 C   0  0  0  0  0  0  0  0  0  0  0  0
    5.7085   -1.6214   -0.9352 H   0  0  0  0  0  0  0  0  0  0  0  0
    6.8060    0.3299    0.1136 H   0  0  0  0  0  0  0  0  0  0  0  0
    5.4563    2.0055    1.3411 H   0  0  0  0  0  0  0  0  0  0  0  0
    3.0129    1.7359    1.5316 H   0  0  0  0  0  0  0  0  0  0  0  0
    1.0941    0.2308    1.4585 H   0  0  0  0  0  0  0  0  0  0  0  0
    1.1684   -1.3297    0.5916 H   0  0  0  0  0  0  0  0  0  0  0  0
    1.0313    1.4688   -0.7344 H   0  0  0  0  0  0  0  0  0  0  0  0
    1.1067   -0.1044   -1.6209 H   0  0  0  0  0  0  0  0  0  0  0  0
   -3.5749    1.8950    0.6671 H   0  0  0  0  0  0  0  0  0  0  0  0
   -6.0312    1.6666    0.8435 H   0  0  0  0  0  0  0  0  0  0  0  0
   -7.1697   -0.3221   -0.1050 H   0  0  0  0  0  0  0  0  0  0  0  0
   -5.8459   -2.0892   -1.2344 H   0  0  0  0  0  0  0  0  0  0  0  0
   -3.3889   -1.8755   -1.4189 H   0  0  0  0  0  0  0  0  0  0  0  0
  1  2  1  0
  2  3  2  0
  3  4  1  0
  4  5  2  0
  5  6  1  0
  6  7  2  0
  7  8  1  0
  8  9  1  0
  9 10  1  0
 10 11  3  0
 11 12  1  0
 12 13  2  0
 13 14  1  0
 14 15  2  0
 15 16  1  0
 16 17  2  0
  7  2  1  0
 17 12  1  0
  3 18  1  0
  4 19  1  0
  5 20  1  0
  6 21  1  0
  8 22  1  0
  8 23  1  0
  9 24  1  0
  9 25  1  0
 13 26  1  0
 14 27  1  0
 15 28  1  0
 16 29  1  0
 17 30  1  0
M  RAD  1   1   3
M  END
$$$$
