
     RDKit          3D

 30 31  0  0  0  0  0  0  0  0999 V2000
    4.0294   -1.6667   -1.3811 N   0  0  0  0  0  1  0  0  0  0  0  0
    3.4827   -0.6857   -0.5024 C   0  0  0  0  0  0  0  0  0  0  0  0
    3.9956   -0.5699    0.7953 C   0  0  0  0  0  0  0  0  0  0  0  0
    3.4686    0.3748    1.6792 C   0  0  0  0  0  0  0  0  0  0  0  0
    2.4252    1.2080    1.2715 C   0  0  0  0  0  0  0  0  0  0  0  0
    1.9087    1.1017   -0.0223 C   0  0  0  0  0  0  0  0  0  0  0  0
    2.4351    0.1603   -0.9251 C   0  0  0  0  0  0  0  0  0  0  0  0
    1.8317    0.0334   -2.3063 C   0  0  0  0  0  0  0  0  0  0  0  0
    0.7832   -1.0838   -2.3706 C   0  0  0  0  0  0  0  0  0  0  0  0
   -0.3705   -0.7798   -1.5148 C   0  0  0  0  0  0  0  0  0  0  0  0
   -1.3032   -0.5180   -0.7979 C   0  0  0  0  0  0  0  0  0  0  0  0
   -2.4037   -0.1941    0.0697 C   0  0  0  0  0  0  0  0  0  0  0  0
   -2.1900    0.6031    1.2027 C   0  0  0  0  0  0  0  0  0  0  0  0
   -3.2592    0.9191    2.0473 C   0  0  0  0  0  0  0  0  0  0  0  0
   -4.5420    0.4404    1.7625 C   0  0  0  0  0  0  0  0  0  0  0  0
   -4.7571   -0.3551    0.6326 C   0  0  0  0  0  0  0  0  0  0  0  0
   -3.6899   -0.6730   -0.2142 C   0  0  0  0  0  0  0  0  0  0  0  0
    4.8013   -1.2158    1.1213 H   0  0  0  0  0  0  0  0  0  0  0  0
    3.8668    0.4583    2.6822 H   0  0  0  0  0  0  0  0  0  0  0  0
    2.0134    1.9348    1.9597 H   0  0  0  0  0  0  0  0  0  0  0  0
    1.0926    1.7493   -0.3185 H   0  0  0  0  0  0  0  0  0  0  0  0
    2.6327   -0.1800   -3.0463 H   0  0  0  0  0  0  0  0  0  0  0  0
    1.3694    0.9967   -2.6174 H   0  0  0  0  0  0  0  0  0  0  0  0
    1.2294   -2.0500   -2.0528 H   0  0  0  0  0  0  0  0  0  0  0  0
    0.4284   -1.1921   -3.4172 H   0  0  0  0  0  0  0  0  0  0  0  0
   -1.1995    0.9788    1.4316 H   0  0  0  0  0  0  0  0  0  0  0  0
   -3.0937    1.5347    2.9221 H   0  0  0  0  0  0  0  0  0  0  0  0
   -5.3685    0.6855    2.4169 H   0  0  0  0  0  0  0  0  0  0  0  0
   -5.7503   -0.7251    0.4131 H   0  0  0  0  0  0  0  0  0  0  0  0
   -3.8666   -1.2899   -1.0872 H   0  0  0  0  0  0  0  0  0  0  0  0
  1  2  1  0
  2  3  2  0
  3  4  1  0
  4  5  2  0
  5  6  1  0
  6  7  2  0
  7  8  1  0
  8  9  1  0
  9 10  1  0
 10 11  3  0
 11 12  1  0
 12 13  2  0
 13 14  1  0
 14 15  2  0
 15 16  1  0
 16 17  2  0
  7  2  1  0
 17 12  1  0
  3 18  1  0
  4 19  1  0
  5 20  1  0
  6 21  1  0
  8 22  1  0
  8 23  1  0
  9 24  1  0
  9 25  1  0
 13 26  1  0
 14 27  1  0
 15 28  1  0
 16 29  1  0
 17 30  1  0
M  RAD  1   1   3
M  END
$$$$
