
     RDKit          3D

 30 31  0  0  0  0  0  0  0  0999 V2000
   -3.1853    2.2566   -0.2180 N   0  0  0  0  0  1  0  0  0  0  0  0
   -3.7582    0.9568   -0.3435 C   0  0  0  0  0  0  0  0  0  0  0  0
   -5.1396    0.8009   -0.1764 C   0  0  0  0  0  0  0  0  0  0  0  0
   -5.7231   -0.4641   -0.2797 C   0  0  0  0  0  0  0  0  0  0  0  0
   -4.9286   -1.5808   -0.5461 C   0  0  0  0  0  0  0  0  0  0  0  0
   -3.5490   -1.4352   -0.7147 C   0  0  0  0  0  0  0  0  0  0  0  0
   -2.9508   -0.1657   -0.6281 C   0  0  0  0  0  0  0  0  0  0  0  0
   -1.4549   -0.0373   -0.7819 C   0  0  0  0  0  0  0  0  0  0  0  0
   -0.7645   -0.1313    0.5804 C   0  0  0  0  0  0  0  0  0  0  0  0
    0.6888   -0.0087    0.4268 C   0  0  0  0  0  0  0  0  0  0  0  0
    1.8834    0.0924    0.2996 C   0  0  0  0  0  0  0  0  0  0  0  0
    3.3091    0.2131    0.1462 C   0  0  0  0  0  0  0  0  0  0  0  0
    4.0914   -0.9289   -0.0747 C   0  0  0  0  0  0  0  0  0  0  0  0
    5.4772   -0.8097   -0.2241 C   0  0  0  0  0  0  0  0  0  0  0  0
    6.0837    0.4484   -0.1534 C   0  0  0  0  0  0  0  0  0  0  0  0
    5.3052    1.5890    0.0668 C   0  0  0  0  0  0  0  0  0  0  0  0
    3.9192    1.4732    0.2166 C   0  0  0  0  0  0  0  0  0  0  0  0
   -5.7620    1.6607    0.0378 H   0  0  0  0  0  0  0  0  0  0  0  0
   -6.7913   -0.5794   -0.1483 H   0  0  0  0  0  0  0  0  0  0  0  0
   -5.3816   -2.5611   -0.6188 H   0  0  0  0  0  0  0  0  0  0  0  0
   -2.9460   -2.3131   -0.9116 H   0  0  0  0  0  0  0  0  0  0  0  0
   -1.2029    0.9299   -1.2697 H   0  0  0  0  0  0  0  0  0  0  0  0
   -1.0743   -0.8431   -1.4487 H   0  0  0  0  0  0  0  0  0  0  0  0
   -1.1220    0.6825    1.2468 H   0  0  0  0  0  0  0  0  0  0  0  0
   -0.9918   -1.1099    1.0548 H   0  0  0  0  0  0  0  0  0  0  0  0
    3.6309   -1.9080   -0.1313 H   0  0  0  0  0  0  0  0  0  0  0  0
    6.0805   -1.6919   -0.3946 H   0  0  0  0  0  0  0  0  0  0  0  0
    7.1560    0.5393   -0.2692 H   0  0  0  0  0  0  0  0  0  0  0  0
    5.7756    2.5623    0.1212 H   0  0  0  0  0  0  0  0  0  0  0  0
    3.3248    2.3630    0.3867 H   0  0  0  0  0  0  0  0  0  0  0  0
  1  2  1  0
  2  3  2  0
  3  4  1  0
  4  5  2  0
  5  6  1  0
  6  7  2  0
  7  8  1  0
  8  9  1  0
  9 10  1  0
 10 11  3  0
 11 12  1  0
 12 13  2  0
 13 14  1  0
 14 15  2  0
 15 16  1  0
 16 17  2  0
  7  2  1  0
 17 12  1  0
  3 18  1  0
  4 19  1  0
  5 20  1  0
  6 21  1  0
  8 22  1  0
  8 23  1  0
  9 24  1  0
  9 25  1  0
 13 26  1  0
 14 27  1  0
 15 28  1  0
 16 29  1  0
 17 30  1  0
M  RAD  1   1   3
M  END
$$$$
