
     RDKit          3D

 30 31  0  0  0  0  0  0  0  0999 V2000
   -2.8037    1.1796    2.5337 N   0  0  0  0  0  1  0  0  0  0  0  0
   -3.5739    0.6536    1.4550 C   0  0  0  0  0  0  0  0  0  0  0  0
   -4.9471    0.9220    1.4026 C   0  0  0  0  0  0  0  0  0  0  0  0
   -5.7210    0.4308    0.3485 C   0  0  0  0  0  0  0  0  0  0  0  0
   -5.1258   -0.3276   -0.6613 C   0  0  0  0  0  0  0  0  0  0  0  0
   -3.7561   -0.6011   -0.6176 C   0  0  0  0  0  0  0  0  0  0  0  0
   -2.9683   -0.1253    0.4454 C   0  0  0  0  0  0  0  0  0  0  0  0
   -1.4854   -0.4061    0.4546 C   0  0  0  0  0  0  0  0  0  0  0  0
   -0.7197    0.7265   -0.2326 C   0  0  0  0  0  0  0  0  0  0  0  0
    0.7204    0.4492   -0.2239 C   0  0  0  0  0  0  0  0  0  0  0  0
    1.9040    0.2204   -0.2161 C   0  0  0  0  0  0  0  0  0  0  0  0
    3.3167   -0.0539   -0.2060 C   0  0  0  0  0  0  0  0  0  0  0  0
    3.9116   -0.7165   -1.2886 C   0  0  0  0  0  0  0  0  0  0  0  0
    5.2848   -0.9829   -1.2769 C   0  0  0  0  0  0  0  0  0  0  0  0
    6.0657   -0.5888   -0.1857 C   0  0  0  0  0  0  0  0  0  0  0  0
    5.4742    0.0722    0.8954 C   0  0  0  0  0  0  0  0  0  0  0  0
    4.1012    0.3401    0.8868 C   0  0  0  0  0  0  0  0  0  0  0  0
   -5.4152    1.5158    2.1779 H   0  0  0  0  0  0  0  0  0  0  0  0
   -6.7819    0.6424    0.3120 H   0  0  0  0  0  0  0  0  0  0  0  0
   -5.7258   -0.7015   -1.4810 H   0  0  0  0  0  0  0  0  0  0  0  0
   -3.3086   -1.1831   -1.4139 H   0  0  0  0  0  0  0  0  0  0  0  0
   -1.2805   -1.3661   -0.0700 H   0  0  0  0  0  0  0  0  0  0  0  0
   -1.1264   -0.5277    1.5003 H   0  0  0  0  0  0  0  0  0  0  0  0
   -1.0570    0.8285   -1.2863 H   0  0  0  0  0  0  0  0  0  0  0  0
   -0.9006    1.6862    0.2968 H   0  0  0  0  0  0  0  0  0  0  0  0
    3.3153   -1.0260   -2.1385 H   0  0  0  0  0  0  0  0  0  0  0  0
    5.7435   -1.4945   -2.1132 H   0  0  0  0  0  0  0  0  0  0  0  0
    7.1280   -0.7955   -0.1779 H   0  0  0  0  0  0  0  0  0  0  0  0
    6.0793    0.3768    1.7395 H   0  0  0  0  0  0  0  0  0  0  0  0
    3.6523    0.8526    1.7293 H   0  0  0  0  0  0  0  0  0  0  0  0
  1  2  1  0
  2  3  2  0
  3  4  1  0
  4  5  2  0
  5  6  1  0
  6  7  2  0
  7  8  1  0
  8  9  1  0
  9 10  1  0
 10 11  3  0
 11 12  1  0
 12 13  2  0
 13 14  1  0
 14 15  2  0
 15 16  1  0
 16 17  2  0
  7  2  1  0
 17 12  1  0
  3 18  1  0
  4 19  1  0
  5 20  1  0
  6 21  1  0
  8 22  1  0
  8 23  1  0
  9 24  1  0
  9 25  1  0
 13 26  1  0
 14 27  1  0
 15 28  1  0
 16 29  1  0
 17 30  1  0
M  RAD  1   1   3
M  END
$$$$
