
     RDKit          3D

 30 31  0  0  0  0  0  0  0  0999 V2000
   -2.9551    2.4100    0.8601 N   0  0  0  0  0  1  0  0  0  0  0  0
   -3.6529    1.2070    0.5450 C   0  0  0  0  0  0  0  0  0  0  0  0
   -5.0379    1.2540    0.3447 C   0  0  0  0  0  0  0  0  0  0  0  0
   -5.7425    0.0923    0.0204 C   0  0  0  0  0  0  0  0  0  0  0  0
   -5.0660   -1.1221   -0.1099 C   0  0  0  0  0  0  0  0  0  0  0  0
   -3.6838   -1.1791    0.0883 C   0  0  0  0  0  0  0  0  0  0  0  0
   -2.9647   -0.0202    0.4298 C   0  0  0  0  0  0  0  0  0  0  0  0
   -1.4681   -0.0999    0.6075 C   0  0  0  0  0  0  0  0  0  0  0  0
   -0.7534    0.2003   -0.7117 C   0  0  0  0  0  0  0  0  0  0  0  0
    0.7004    0.1196   -0.5358 C   0  0  0  0  0  0  0  0  0  0  0  0
    1.8952    0.0531   -0.3901 C   0  0  0  0  0  0  0  0  0  0  0  0
    3.3213   -0.0264   -0.2148 C   0  0  0  0  0  0  0  0  0  0  0  0
    4.0391    1.0952    0.2232 C   0  0  0  0  0  0  0  0  0  0  0  0
    5.4253    1.0161    0.3937 C   0  0  0  0  0  0  0  0  0  0  0  0
    6.0966   -0.1815    0.1276 C   0  0  0  0  0  0  0  0  0  0  0  0
    5.3825   -1.3017   -0.3092 C   0  0  0  0  0  0  0  0  0  0  0  0
    3.9962   -1.2259   -0.4807 C   0  0  0  0  0  0  0  0  0  0  0  0
   -5.5691    2.1932    0.4365 H   0  0  0  0  0  0  0  0  0  0  0  0
   -6.8128    0.1344   -0.1348 H   0  0  0  0  0  0  0  0  0  0  0  0
   -5.6125   -2.0199   -0.3682 H   0  0  0  0  0  0  0  0  0  0  0  0
   -3.1732   -2.1275   -0.0257 H   0  0  0  0  0  0  0  0  0  0  0  0
   -1.1378    0.6176    1.3905 H   0  0  0  0  0  0  0  0  0  0  0  0
   -1.1845   -1.1162    0.9618 H   0  0  0  0  0  0  0  0  0  0  0  0
   -1.0604   -0.5349   -1.4860 H   0  0  0  0  0  0  0  0  0  0  0  0
   -1.0133    1.2216   -1.0632 H   0  0  0  0  0  0  0  0  0  0  0  0
    3.5282    2.0275    0.4321 H   0  0  0  0  0  0  0  0  0  0  0  0
    5.9789    1.8825    0.7318 H   0  0  0  0  0  0  0  0  0  0  0  0
    7.1692   -0.2415    0.2599 H   0  0  0  0  0  0  0  0  0  0  0  0
    5.9029   -2.2282   -0.5148 H   0  0  0  0  0  0  0  0  0  0  0  0
    3.4520   -2.0994   -0.8194 H   0  0  0  0  0  0  0  0  0  0  0  0
  1  2  1  0
  2  3  2  0
  3  4  1  0
  4  5  2  0
  5  6  1  0
  6  7  2  0
  7  8  1  0
  8  9  1  0
  9 10  1  0
 10 11  3  0
 11 12  1  0
 12 13  2  0
 13 14  1  0
 14 15  2  0
 15 16  1  0
 16 17  2  0
  7  2  1  0
 17 12  1  0
  3 18  1  0
  4 19  1  0
  5 20  1  0
  6 21  1  0
  8 22  1  0
  8 23  1  0
  9 24  1  0
  9 25  1  0
 13 26  1  0
 14 27  1  0
 15 28  1  0
 16 29  1  0
 17 30  1  0
M  RAD  1   1   3
M  END
$$$$
