
     RDKit          3D

 30 31  0  0  0  0  0  0  0  0999 V2000
    3.9129   -1.2909    1.9786 N   0  0  0  0  0  1  0  0  0  0  0  0
    3.3465   -0.1938    1.2652 C   0  0  0  0  0  0  0  0  0  0  0  0
    3.5622    1.1085    1.7321 C   0  0  0  0  0  0  0  0  0  0  0  0
    3.0076    2.1993    1.0582 C   0  0  0  0  0  0  0  0  0  0  0  0
    2.2333    1.9944   -0.0853 C   0  0  0  0  0  0  0  0  0  0  0  0
    2.0148    0.6988   -0.5604 C   0  0  0  0  0  0  0  0  0  0  0  0
    2.5735   -0.4079    0.1039 C   0  0  0  0  0  0  0  0  0  0  0  0
    2.2880   -1.8041   -0.4033 C   0  0  0  0  0  0  0  0  0  0  0  0
    1.1153   -2.4532    0.3417 C   0  0  0  0  0  0  0  0  0  0  0  0
   -0.1382   -1.7305    0.0919 C   0  0  0  0  0  0  0  0  0  0  0  0
   -1.1547   -1.1174   -0.1158 C   0  0  0  0  0  0  0  0  0  0  0  0
   -2.3566   -0.3683   -0.3670 C   0  0  0  0  0  0  0  0  0  0  0  0
   -2.2804    1.0032   -0.6462 C   0  0  0  0  0  0  0  0  0  0  0  0
   -3.4483    1.7331   -0.8908 C   0  0  0  0  0  0  0  0  0  0  0  0
   -4.6926    1.0956   -0.8571 C   0  0  0  0  0  0  0  0  0  0  0  0
   -4.7706   -0.2727   -0.5787 C   0  0  0  0  0  0  0  0  0  0  0  0
   -3.6044   -1.0056   -0.3336 C   0  0  0  0  0  0  0  0  0  0  0  0
    4.1571    1.2759    2.6212 H   0  0  0  0  0  0  0  0  0  0  0  0
    3.1752    3.2037    1.4248 H   0  0  0  0  0  0  0  0  0  0  0  0
    1.7987    2.8400   -0.6025 H   0  0  0  0  0  0  0  0  0  0  0  0
    1.4032    0.5575   -1.4431 H   0  0  0  0  0  0  0  0  0  0  0  0
    3.1912   -2.4394   -0.2784 H   0  0  0  0  0  0  0  0  0  0  0  0
    2.0707   -1.7834   -1.4945 H   0  0  0  0  0  0  0  0  0  0  0  0
    1.3151   -2.4715    1.4341 H   0  0  0  0  0  0  0  0  0  0  0  0
    0.9953   -3.5004   -0.0075 H   0  0  0  0  0  0  0  0  0  0  0  0
   -1.3208    1.5060   -0.6745 H   0  0  0  0  0  0  0  0  0  0  0  0
   -3.3890    2.7921   -1.1063 H   0  0  0  0  0  0  0  0  0  0  0  0
   -5.5957    1.6614   -1.0465 H   0  0  0  0  0  0  0  0  0  0  0  0
   -5.7341   -0.7651   -0.5528 H   0  0  0  0  0  0  0  0  0  0  0  0
   -3.6751   -2.0652   -0.1189 H   0  0  0  0  0  0  0  0  0  0  0  0
  1  2  1  0
  2  3  2  0
  3  4  1  0
  4  5  2  0
  5  6  1  0
  6  7  2  0
  7  8  1  0
  8  9  1  0
  9 10  1  0
 10 11  3  0
 11 12  1  0
 12 13  2  0
 13 14  1  0
 14 15  2  0
 15 16  1  0
 16 17  2  0
  7  2  1  0
 17 12  1  0
  3 18  1  0
  4 19  1  0
  5 20  1  0
  6 21  1  0
  8 22  1  0
  8 23  1  0
  9 24  1  0
  9 25  1  0
 13 26  1  0
 14 27  1  0
 15 28  1  0
 16 29  1  0
 17 30  1  0
M  RAD  1   1   3
M  END
$$$$
