
     RDKit          3D

 30 31  0  0  0  0  0  0  0  0999 V2000
   -3.1461    2.2581    0.5459 N   0  0  0  0  0  1  0  0  0  0  0  0
   -3.7464    0.9904    0.2892 C   0  0  0  0  0  0  0  0  0  0  0  0
   -5.1134    0.8195    0.5398 C   0  0  0  0  0  0  0  0  0  0  0  0
   -5.7222   -0.4167    0.3107 C   0  0  0  0  0  0  0  0  0  0  0  0
   -4.9672   -1.4901   -0.1659 C   0  0  0  0  0  0  0  0  0  0  0  0
   -3.6023   -1.3291   -0.4193 C   0  0  0  0  0  0  0  0  0  0  0  0
   -2.9802   -0.0863   -0.2072 C   0  0  0  0  0  0  0  0  0  0  0  0
   -1.4985    0.0551   -0.4573 C   0  0  0  0  0  0  0  0  0  0  0  0
   -0.7081   -0.2278    0.8219 C   0  0  0  0  0  0  0  0  0  0  0  0
    0.7311   -0.0920    0.5746 C   0  0  0  0  0  0  0  0  0  0  0  0
    1.9139    0.0200    0.3702 C   0  0  0  0  0  0  0  0  0  0  0  0
    3.3256    0.1542    0.1250 C   0  0  0  0  0  0  0  0  0  0  0  0
    4.0819   -0.9628   -0.2562 C   0  0  0  0  0  0  0  0  0  0  0  0
    5.4539   -0.8305   -0.4948 C   0  0  0  0  0  0  0  0  0  0  0  0
    6.0726    0.4156   -0.3535 C   0  0  0  0  0  0  0  0  0  0  0  0
    5.3199    1.5313    0.0265 C   0  0  0  0  0  0  0  0  0  0  0  0
    3.9477    1.4024    0.2659 C   0  0  0  0  0  0  0  0  0  0  0  0
   -5.7046    1.6448    0.9167 H   0  0  0  0  0  0  0  0  0  0  0  0
   -6.7789   -0.5439    0.5074 H   0  0  0  0  0  0  0  0  0  0  0  0
   -5.4392   -2.4491   -0.3362 H   0  0  0  0  0  0  0  0  0  0  0  0
   -3.0294   -2.1746   -0.7800 H   0  0  0  0  0  0  0  0  0  0  0  0
   -1.2696    1.0788   -0.8268 H   0  0  0  0  0  0  0  0  0  0  0  0
   -1.1819   -0.6535   -1.2551 H   0  0  0  0  0  0  0  0  0  0  0  0
   -0.9134   -1.2612    1.1747 H   0  0  0  0  0  0  0  0  0  0  0  0
   -1.0015    0.4885    1.6187 H   0  0  0  0  0  0  0  0  0  0  0  0
    3.6118   -1.9325   -0.3686 H   0  0  0  0  0  0  0  0  0  0  0  0
    6.0372   -1.6934   -0.7891 H   0  0  0  0  0  0  0  0  0  0  0  0
    7.1342    0.5167   -0.5384 H   0  0  0  0  0  0  0  0  0  0  0  0
    5.7997    2.4954    0.1355 H   0  0  0  0  0  0  0  0  0  0  0  0
    3.3733    2.2728    0.5597 H   0  0  0  0  0  0  0  0  0  0  0  0
  1  2  1  0
  2  3  2  0
  3  4  1  0
  4  5  2  0
  5  6  1  0
  6  7  2  0
  7  8  1  0
  8  9  1  0
  9 10  1  0
 10 11  3  0
 11 12  1  0
 12 13  2  0
 13 14  1  0
 14 15  2  0
 15 16  1  0
 16 17  2  0
  7  2  1  0
 17 12  1  0
  3 18  1  0
  4 19  1  0
  5 20  1  0
  6 21  1  0
  8 22  1  0
  8 23  1  0
  9 24  1  0
  9 25  1  0
 13 26  1  0
 14 27  1  0
 15 28  1  0
 16 29  1  0
 17 30  1  0
M  RAD  1   1   3
M  END
$$$$
