
     RDKit          3D

 30 31  0  0  0  0  0  0  0  0999 V2000
    3.0048   -2.3893    0.7816 N   0  0  0  0  0  1  0  0  0  0  0  0
    3.6789   -1.2089    0.3505 C   0  0  0  0  0  0  0  0  0  0  0  0
    5.0612   -1.1024    0.5465 C   0  0  0  0  0  0  0  0  0  0  0  0
    5.7425    0.0496    0.1467 C   0  0  0  0  0  0  0  0  0  0  0  0
    5.0452    1.1034   -0.4471 C   0  0  0  0  0  0  0  0  0  0  0  0
    3.6655    1.0064   -0.6472 C   0  0  0  0  0  0  0  0  0  0  0  0
    2.9700   -0.1536   -0.2630 C   0  0  0  0  0  0  0  0  0  0  0  0
    1.4752   -0.2227   -0.4597 C   0  0  0  0  0  0  0  0  0  0  0  0
    0.7450    0.2740    0.7898 C   0  0  0  0  0  0  0  0  0  0  0  0
   -0.7069    0.2078    0.5941 C   0  0  0  0  0  0  0  0  0  0  0  0
   -1.9003    0.1529    0.4323 C   0  0  0  0  0  0  0  0  0  0  0  0
   -3.3246    0.0868    0.2379 C   0  0  0  0  0  0  0  0  0  0  0  0
   -4.0370   -1.0506    0.6426 C   0  0  0  0  0  0  0  0  0  0  0  0
   -5.4215   -1.1136    0.4523 C   0  0  0  0  0  0  0  0  0  0  0  0
   -6.0964   -0.0424   -0.1417 C   0  0  0  0  0  0  0  0  0  0  0  0
   -5.3876    1.0931   -0.5463 C   0  0  0  0  0  0  0  0  0  0  0  0
   -4.0031    1.1592   -0.3575 C   0  0  0  0  0  0  0  0  0  0  0  0
    5.6083   -1.9121    1.0131 H   0  0  0  0  0  0  0  0  0  0  0  0
    6.8109    0.1275    0.3018 H   0  0  0  0  0  0  0  0  0  0  0  0
    5.5737    1.9982   -0.7499 H   0  0  0  0  0  0  0  0  0  0  0  0
    3.1385    1.8368   -1.1008 H   0  0  0  0  0  0  0  0  0  0  0  0
    1.1812    0.3992   -1.3347 H   0  0  0  0  0  0  0  0  0  0  0  0
    1.1682   -1.2668   -0.6893 H   0  0  0  0  0  0  0  0  0  0  0  0
    1.0153   -0.3542    1.6653 H   0  0  0  0  0  0  0  0  0  0  0  0
    1.0287    1.3270    1.0022 H   0  0  0  0  0  0  0  0  0  0  0  0
   -3.5234   -1.8858    1.1035 H   0  0  0  0  0  0  0  0  0  0  0  0
   -5.9709   -1.9921    0.7650 H   0  0  0  0  0  0  0  0  0  0  0  0
   -7.1676   -0.0923   -0.2884 H   0  0  0  0  0  0  0  0  0  0  0  0
   -5.9108    1.9216   -1.0061 H   0  0  0  0  0  0  0  0  0  0  0  0
   -3.4630    2.0433   -0.6745 H   0  0  0  0  0  0  0  0  0  0  0  0
  1  2  1  0
  2  3  2  0
  3  4  1  0
  4  5  2  0
  5  6  1  0
  6  7  2  0
  7  8  1  0
  8  9  1  0
  9 10  1  0
 10 11  3  0
 11 12  1  0
 12 13  2  0
 13 14  1  0
 14 15  2  0
 15 16  1  0
 16 17  2  0
  7  2  1  0
 17 12  1  0
  3 18  1  0
  4 19  1  0
  5 20  1  0
  6 21  1  0
  8 22  1  0
  8 23  1  0
  9 24  1  0
  9 25  1  0
 13 26  1  0
 14 27  1  0
 15 28  1  0
 16 29  1  0
 17 30  1  0
M  RAD  1   1   3
M  END
$$$$
