
     RDKit          3D

 30 31  0  0  0  0  0  0  0  0999 V2000
   -2.9760   -2.4632    0.6945 N   0  0  0  0  0  1  0  0  0  0  0  0
   -3.6603   -1.2874    0.2669 C   0  0  0  0  0  0  0  0  0  0  0  0
   -5.0117   -1.3757   -0.0888 C   0  0  0  0  0  0  0  0  0  0  0  0
   -5.7006   -0.2416   -0.5251 C   0  0  0  0  0  0  0  0  0  0  0  0
   -5.0414    0.9861   -0.6127 C   0  0  0  0  0  0  0  0  0  0  0  0
   -3.6928    1.0842   -0.2598 C   0  0  0  0  0  0  0  0  0  0  0  0
   -2.9915   -0.0463    0.1951 C   0  0  0  0  0  0  0  0  0  0  0  0
   -1.5274    0.0769    0.5401 C   0  0  0  0  0  0  0  0  0  0  0  0
   -0.6593   -0.2397   -0.6795 C   0  0  0  0  0  0  0  0  0  0  0  0
    0.7624   -0.1164   -0.3414 C   0  0  0  0  0  0  0  0  0  0  0  0
    1.9308   -0.0149   -0.0623 C   0  0  0  0  0  0  0  0  0  0  0  0
    3.3252    0.1065    0.2720 C   0  0  0  0  0  0  0  0  0  0  0  0
    3.9603    1.3538    0.1949 C   0  0  0  0  0  0  0  0  0  0  0  0
    5.3157    1.4703    0.5209 C   0  0  0  0  0  0  0  0  0  0  0  0
    6.0386    0.3432    0.9240 C   0  0  0  0  0  0  0  0  0  0  0  0
    5.4070   -0.9021    1.0018 C   0  0  0  0  0  0  0  0  0  0  0  0
    4.0517   -1.0220    0.6766 C   0  0  0  0  0  0  0  0  0  0  0  0
   -5.5284   -2.3256   -0.0308 H   0  0  0  0  0  0  0  0  0  0  0  0
   -6.7448   -0.3155   -0.8001 H   0  0  0  0  0  0  0  0  0  0  0  0
   -5.5750    1.8623   -0.9578 H   0  0  0  0  0  0  0  0  0  0  0  0
   -3.1942    2.0421   -0.3425 H   0  0  0  0  0  0  0  0  0  0  0  0
   -1.3095    1.1092    0.8945 H   0  0  0  0  0  0  0  0  0  0  0  0
   -1.2730   -0.6108    1.3764 H   0  0  0  0  0  0  0  0  0  0  0  0
   -0.8537   -1.2764   -1.0281 H   0  0  0  0  0  0  0  0  0  0  0  0
   -0.8921    0.4664   -1.5051 H   0  0  0  0  0  0  0  0  0  0  0  0
    3.4089    2.2330   -0.1162 H   0  0  0  0  0  0  0  0  0  0  0  0
    5.8053    2.4337    0.4610 H   0  0  0  0  0  0  0  0  0  0  0  0
    7.0872    0.4346    1.1760 H   0  0  0  0  0  0  0  0  0  0  0  0
    5.9673   -1.7738    1.3141 H   0  0  0  0  0  0  0  0  0  0  0  0
    3.5715   -1.9911    0.7402 H   0  0  0  0  0  0  0  0  0  0  0  0
  1  2  1  0
  2  3  2  0
  3  4  1  0
  4  5  2  0
  5  6  1  0
  6  7  2  0
  7  8  1  0
  8  9  1  0
  9 10  1  0
 10 11  3  0
 11 12  1  0
 12 13  2  0
 13 14  1  0
 14 15  2  0
 15 16  1  0
 16 17  2  0
  7  2  1  0
 17 12  1  0
  3 18  1  0
  4 19  1  0
  5 20  1  0
  6 21  1  0
  8 22  1  0
  8 23  1  0
  9 24  1  0
  9 25  1  0
 13 26  1  0
 14 27  1  0
 15 28  1  0
 16 29  1  0
 17 30  1  0
M  RAD  1   1   3
M  END
$$$$
