
     RDKit          3D

 30 31  0  0  0  0  0  0  0  0999 V2000
   -2.8658   -1.5433   -3.1206 N   0  0  0  0  0  1  0  0  0  0  0  0
   -2.6108   -1.6565   -1.7222 C   0  0  0  0  0  0  0  0  0  0  0  0
   -2.6283   -2.9230   -1.1254 C   0  0  0  0  0  0  0  0  0  0  0  0
   -2.3692   -3.0618    0.2402 C   0  0  0  0  0  0  0  0  0  0  0  0
   -2.0898   -1.9357    1.0167 C   0  0  0  0  0  0  0  0  0  0  0  0
   -2.0727   -0.6675    0.4307 C   0  0  0  0  0  0  0  0  0  0  0  0
   -2.3394   -0.5125   -0.9415 C   0  0  0  0  0  0  0  0  0  0  0  0
   -2.2730    0.8649   -1.5631 C   0  0  0  0  0  0  0  0  0  0  0  0
   -0.9068    1.1363   -2.2046 C   0  0  0  0  0  0  0  0  0  0  0  0
    0.1590    1.1597   -1.1950 C   0  0  0  0  0  0  0  0  0  0  0  0
    1.0215    1.1637   -0.3532 C   0  0  0  0  0  0  0  0  0  0  0  0
    2.0391    1.1556    0.6632 C   0  0  0  0  0  0  0  0  0  0  0  0
    1.8664    0.3826    1.8197 C   0  0  0  0  0  0  0  0  0  0  0  0
    2.8551    0.3737    2.8091 C   0  0  0  0  0  0  0  0  0  0  0  0
    4.0164    1.1356    2.6457 C   0  0  0  0  0  0  0  0  0  0  0  0
    4.1904    1.9075    1.4925 C   0  0  0  0  0  0  0  0  0  0  0  0
    3.2035    1.9186    0.5011 C   0  0  0  0  0  0  0  0  0  0  0  0
   -2.8389   -3.8022   -1.7215 H   0  0  0  0  0  0  0  0  0  0  0  0
   -2.3813   -4.0434    0.6961 H   0  0  0  0  0  0  0  0  0  0  0  0
   -1.8826   -2.0455    2.0734 H   0  0  0  0  0  0  0  0  0  0  0  0
   -1.8442    0.1941    1.0460 H   0  0  0  0  0  0  0  0  0  0  0  0
   -3.0623    0.9636   -2.3391 H   0  0  0  0  0  0  0  0  0  0  0  0
   -2.4880    1.6456   -0.7997 H   0  0  0  0  0  0  0  0  0  0  0  0
   -0.6752    0.3580   -2.9624 H   0  0  0  0  0  0  0  0  0  0  0  0
   -0.9322    2.1221   -2.7150 H   0  0  0  0  0  0  0  0  0  0  0  0
    0.9700   -0.2111    1.9553 H   0  0  0  0  0  0  0  0  0  0  0  0
    2.7213   -0.2234    3.7019 H   0  0  0  0  0  0  0  0  0  0  0  0
    4.7807    1.1279    3.4120 H   0  0  0  0  0  0  0  0  0  0  0  0
    5.0896    2.4968    1.3671 H   0  0  0  0  0  0  0  0  0  0  0  0
    3.3475    2.5197   -0.3887 H   0  0  0  0  0  0  0  0  0  0  0  0
  1  2  1  0
  2  3  2  0
  3  4  1  0
  4  5  2  0
  5  6  1  0
  6  7  2  0
  7  8  1  0
  8  9  1  0
  9 10  1  0
 10 11  3  0
 11 12  1  0
 12 13  2  0
 13 14  1  0
 14 15  2  0
 15 16  1  0
 16 17  2  0
  7  2  1  0
 17 12  1  0
  3 18  1  0
  4 19  1  0
  5 20  1  0
  6 21  1  0
  8 22  1  0
  8 23  1  0
  9 24  1  0
  9 25  1  0
 13 26  1  0
 14 27  1  0
 15 28  1  0
 16 29  1  0
 17 30  1  0
M  RAD  1   1   3
M  END
$$$$
