
     RDKit          3D

 30 31  0  0  0  0  0  0  0  0999 V2000
   -2.8982    0.3366    2.5953 N   0  0  0  0  0  1  0  0  0  0  0  0
   -3.6247    0.2341    1.3725 C   0  0  0  0  0  0  0  0  0  0  0  0
   -5.0055    0.0058    1.4163 C   0  0  0  0  0  0  0  0  0  0  0  0
   -5.7374   -0.1134    0.2325 C   0  0  0  0  0  0  0  0  0  0  0  0
   -5.0926   -0.0097   -1.0015 C   0  0  0  0  0  0  0  0  0  0  0  0
   -3.7149    0.2183   -1.0554 C   0  0  0  0  0  0  0  0  0  0  0  0
   -2.9687    0.3551    0.1284 C   0  0  0  0  0  0  0  0  0  0  0  0
   -1.4770    0.5689    0.0457 C   0  0  0  0  0  0  0  0  0  0  0  0
   -0.7391   -0.7710    0.0832 C   0  0  0  0  0  0  0  0  0  0  0  0
    0.7098   -0.5596    0.0001 C   0  0  0  0  0  0  0  0  0  0  0  0
    1.9007   -0.3847   -0.0681 C   0  0  0  0  0  0  0  0  0  0  0  0
    3.3219   -0.1745   -0.1496 C   0  0  0  0  0  0  0  0  0  0  0  0
    3.9528   -0.1138   -1.3999 C   0  0  0  0  0  0  0  0  0  0  0  0
    5.3344    0.0911   -1.4774 C   0  0  0  0  0  0  0  0  0  0  0  0
    6.0878    0.2358   -0.3082 C   0  0  0  0  0  0  0  0  0  0  0  0
    5.4605    0.1757    0.9402 C   0  0  0  0  0  0  0  0  0  0  0  0
    4.0790   -0.0291    1.0212 C   0  0  0  0  0  0  0  0  0  0  0  0
   -5.5121   -0.0833    2.3692 H   0  0  0  0  0  0  0  0  0  0  0  0
   -6.8044   -0.2912    0.2718 H   0  0  0  0  0  0  0  0  0  0  0  0
   -5.6602   -0.1094   -1.9177 H   0  0  0  0  0  0  0  0  0  0  0  0
   -3.2289    0.2869   -2.0209 H   0  0  0  0  0  0  0  0  0  0  0  0
   -1.1366    1.2138    0.8855 H   0  0  0  0  0  0  0  0  0  0  0  0
   -1.2251    1.1065   -0.8957 H   0  0  0  0  0  0  0  0  0  0  0  0
   -0.9670   -1.3064    1.0296 H   0  0  0  0  0  0  0  0  0  0  0  0
   -1.0569   -1.4039   -0.7729 H   0  0  0  0  0  0  0  0  0  0  0  0
    3.3779   -0.2245   -2.3116 H   0  0  0  0  0  0  0  0  0  0  0  0
    5.8209    0.1379   -2.4431 H   0  0  0  0  0  0  0  0  0  0  0  0
    7.1567    0.3943   -0.3694 H   0  0  0  0  0  0  0  0  0  0  0  0
    6.0444    0.2878    1.8446 H   0  0  0  0  0  0  0  0  0  0  0  0
    3.6024   -0.0740    1.9931 H   0  0  0  0  0  0  0  0  0  0  0  0
  1  2  1  0
  2  3  2  0
  3  4  1  0
  4  5  2  0
  5  6  1  0
  6  7  2  0
  7  8  1  0
  8  9  1  0
  9 10  1  0
 10 11  3  0
 11 12  1  0
 12 13  2  0
 13 14  1  0
 14 15  2  0
 15 16  1  0
 16 17  2  0
  7  2  1  0
 17 12  1  0
  3 18  1  0
  4 19  1  0
  5 20  1  0
  6 21  1  0
  8 22  1  0
  8 23  1  0
  9 24  1  0
  9 25  1  0
 13 26  1  0
 14 27  1  0
 15 28  1  0
 16 29  1  0
 17 30  1  0
M  RAD  1   1   3
M  END
$$$$
