
     RDKit          3D

 34 35  0  0  0  0  0  0  0  0999 V2000
   -1.8143   -2.7252    0.5839 C   0  0  0  0  0  0  0  0  0  0  0  0
   -1.7496   -1.2475    0.3323 C   0  0  0  0  0  0  0  0  0  0  0  0
   -2.6339   -0.3801    0.9864 C   0  0  0  0  0  0  0  0  0  0  0  0
   -2.5929    1.0011    0.7401 C   0  0  0  0  0  0  0  0  0  0  0  0
   -3.5328    1.9217    1.4691 C   0  0  0  0  0  0  0  0  0  0  0  0
   -1.6586    1.5162   -0.1799 C   0  0  0  0  0  0  0  0  0  0  0  0
   -1.5967    2.9232   -0.4168 N   0  0  0  0  0  1  0  0  0  0  0  0
   -0.7859    0.6447   -0.8640 C   0  0  0  0  0  0  0  0  0  0  0  0
    0.2582    1.1733   -1.8221 C   0  0  0  0  0  0  0  0  0  0  0  0
    1.5102    1.6699   -1.0846 C   0  0  0  0  0  0  0  0  0  0  0  0
    2.2059    0.5524   -0.3494 C   0  0  0  0  0  0  0  0  0  0  0  0
    1.9672    0.3465    1.0204 C   0  0  0  0  0  0  0  0  0  0  0  0
    2.5706   -0.7240    1.6871 C   0  0  0  0  0  0  0  0  0  0  0  0
    3.4122   -1.5970    0.9924 C   0  0  0  0  0  0  0  0  0  0  0  0
    3.6495   -1.4026   -0.3711 C   0  0  0  0  0  0  0  0  0  0  0  0
    3.0463   -0.3345   -1.0424 C   0  0  0  0  0  0  0  0  0  0  0  0
   -0.8425   -0.7336   -0.6022 C   0  0  0  0  0  0  0  0  0  0  0  0
   -2.1759   -2.9340    1.6133 H   0  0  0  0  0  0  0  0  0  0  0  0
   -2.5073   -3.1938   -0.1456 H   0  0  0  0  0  0  0  0  0  0  0  0
   -0.8084   -3.1842    0.4755 H   0  0  0  0  0  0  0  0  0  0  0  0
   -3.3507   -0.7821    1.6928 H   0  0  0  0  0  0  0  0  0  0  0  0
   -4.2359    1.3597    2.1200 H   0  0  0  0  0  0  0  0  0  0  0  0
   -4.1301    2.5051    0.7370 H   0  0  0  0  0  0  0  0  0  0  0  0
   -2.9507    2.6214    2.1051 H   0  0  0  0  0  0  0  0  0  0  0  0
   -0.1677    2.0098   -2.4169 H   0  0  0  0  0  0  0  0  0  0  0  0
    0.5460    0.3876   -2.5551 H   0  0  0  0  0  0  0  0  0  0  0  0
    1.2345    2.4852   -0.3803 H   0  0  0  0  0  0  0  0  0  0  0  0
    2.2108    2.1123   -1.8257 H   0  0  0  0  0  0  0  0  0  0  0  0
    1.3051    1.0064    1.5673 H   0  0  0  0  0  0  0  0  0  0  0  0
    2.3816   -0.8797    2.7413 H   0  0  0  0  0  0  0  0  0  0  0  0
    3.8772   -2.4262    1.5097 H   0  0  0  0  0  0  0  0  0  0  0  0
    4.2968   -2.0829   -0.9093 H   0  0  0  0  0  0  0  0  0  0  0  0
    3.2276   -0.2020   -2.1018 H   0  0  0  0  0  0  0  0  0  0  0  0
   -0.1655   -1.4070   -1.1153 H   0  0  0  0  0  0  0  0  0  0  0  0
  1  2  1  0
  2  3  2  0
  3  4  1  0
  4  5  1  0
  4  6  2  0
  6  7  1  0
  6  8  1  0
  8  9  1  0
  9 10  1  0
 10 11  1  0
 11 12  2  0
 12 13  1  0
 13 14  2  0
 14 15  1  0
 15 16  2  0
  8 17  2  0
 17  2  1  0
 16 11  1  0
  1 18  1  0
  1 19  1  0
  1 20  1  0
  3 21  1  0
  5 22  1  0
  5 23  1  0
  5 24  1  0
  9 25  1  0
  9 26  1  0
 10 27  1  0
 10 28  1  0
 12 29  1  0
 13 30  1  0
 14 31  1  0
 15 32  1  0
 16 33  1  0
 17 34  1  0
M  RAD  1   7   3
M  END
$$$$
