
     RDKit          3D

 34 35  0  0  0  0  0  0  0  0999 V2000
    3.6219    2.1766   -0.1519 C   0  0  0  0  0  0  0  0  0  0  0  0
    2.6122    1.0731   -0.2716 C   0  0  0  0  0  0  0  0  0  0  0  0
    2.8041   -0.1345    0.4113 C   0  0  0  0  0  0  0  0  0  0  0  0
    1.8798   -1.1826    0.2826 C   0  0  0  0  0  0  0  0  0  0  0  0
    2.0863   -2.4632    1.0441 C   0  0  0  0  0  0  0  0  0  0  0  0
    0.7573   -1.0220   -0.5529 C   0  0  0  0  0  0  0  0  0  0  0  0
   -0.1921   -2.0823   -0.6731 N   0  0  0  0  0  1  0  0  0  0  0  0
    0.5704    0.1841   -1.2626 C   0  0  0  0  0  0  0  0  0  0  0  0
   -0.6485    0.4123   -2.1294 C   0  0  0  0  0  0  0  0  0  0  0  0
   -1.7286    1.2180   -1.3933 C   0  0  0  0  0  0  0  0  0  0  0  0
   -2.2767    0.4675   -0.2065 C   0  0  0  0  0  0  0  0  0  0  0  0
   -1.7559    0.6936    1.0792 C   0  0  0  0  0  0  0  0  0  0  0  0
   -2.2297   -0.0413    2.1701 C   0  0  0  0  0  0  0  0  0  0  0  0
   -3.2226   -1.0073    1.9857 C   0  0  0  0  0  0  0  0  0  0  0  0
   -3.7414   -1.2421    0.7093 C   0  0  0  0  0  0  0  0  0  0  0  0
   -3.2688   -0.5109   -0.3849 C   0  0  0  0  0  0  0  0  0  0  0  0
    1.5039    1.2219   -1.1146 C   0  0  0  0  0  0  0  0  0  0  0  0
    3.1371    3.1677   -0.2811 H   0  0  0  0  0  0  0  0  0  0  0  0
    4.1048    2.1601    0.8484 H   0  0  0  0  0  0  0  0  0  0  0  0
    4.4010    2.0500   -0.9323 H   0  0  0  0  0  0  0  0  0  0  0  0
    3.6728   -0.2550    1.0479 H   0  0  0  0  0  0  0  0  0  0  0  0
    1.2385   -2.6218    1.7435 H   0  0  0  0  0  0  0  0  0  0  0  0
    2.1394   -3.3165    0.3355 H   0  0  0  0  0  0  0  0  0  0  0  0
    3.0270   -2.4433    1.6345 H   0  0  0  0  0  0  0  0  0  0  0  0
   -0.3465    0.9749   -3.0397 H   0  0  0  0  0  0  0  0  0  0  0  0
   -1.0745   -0.5487   -2.4895 H   0  0  0  0  0  0  0  0  0  0  0  0
   -2.5564    1.4386   -2.1020 H   0  0  0  0  0  0  0  0  0  0  0  0
   -1.3137    2.1992   -1.0733 H   0  0  0  0  0  0  0  0  0  0  0  0
   -0.9760    1.4291    1.2338 H   0  0  0  0  0  0  0  0  0  0  0  0
   -1.8235    0.1347    3.1577 H   0  0  0  0  0  0  0  0  0  0  0  0
   -3.5871   -1.5766    2.8309 H   0  0  0  0  0  0  0  0  0  0  0  0
   -4.5061   -1.9946    0.5669 H   0  0  0  0  0  0  0  0  0  0  0  0
   -3.6693   -0.7112   -1.3710 H   0  0  0  0  0  0  0  0  0  0  0  0
    1.3609    2.1524   -1.6519 H   0  0  0  0  0  0  0  0  0  0  0  0
  1  2  1  0
  2  3  2  0
  3  4  1  0
  4  5  1  0
  4  6  2  0
  6  7  1  0
  6  8  1  0
  8  9  1  0
  9 10  1  0
 10 11  1  0
 11 12  2  0
 12 13  1  0
 13 14  2  0
 14 15  1  0
 15 16  2  0
  8 17  2  0
 17  2  1  0
 16 11  1  0
  1 18  1  0
  1 19  1  0
  1 20  1  0
  3 21  1  0
  5 22  1  0
  5 23  1  0
  5 24  1  0
  9 25  1  0
  9 26  1  0
 10 27  1  0
 10 28  1  0
 12 29  1  0
 13 30  1  0
 14 31  1  0
 15 32  1  0
 16 33  1  0
 17 34  1  0
M  RAD  1   7   3
M  END
$$$$
