
     RDKit          3D

 34 35  0  0  0  0  0  0  0  0999 V2000
   -3.6535   -2.7385   -0.1645 C   0  0  0  0  0  0  0  0  0  0  0  0
   -2.9934   -1.3976   -0.0315 C   0  0  0  0  0  0  0  0  0  0  0  0
   -3.7529   -0.2251   -0.1355 C   0  0  0  0  0  0  0  0  0  0  0  0
   -3.1490    1.0330    0.0143 C   0  0  0  0  0  0  0  0  0  0  0  0
   -3.9741    2.2831   -0.1237 C   0  0  0  0  0  0  0  0  0  0  0  0
   -1.7694    1.1141    0.2878 C   0  0  0  0  0  0  0  0  0  0  0  0
   -1.1461    2.3923    0.4215 N   0  0  0  0  0  1  0  0  0  0  0  0
   -1.0061   -0.0639    0.4294 C   0  0  0  0  0  0  0  0  0  0  0  0
    0.4780   -0.0074    0.7007 C   0  0  0  0  0  0  0  0  0  0  0  0
    1.2616    0.1100   -0.6101 C   0  0  0  0  0  0  0  0  0  0  0  0
    2.7406    0.1704   -0.3388 C   0  0  0  0  0  0  0  0  0  0  0  0
    3.4955   -1.0118   -0.2576 C   0  0  0  0  0  0  0  0  0  0  0  0
    4.8634   -0.9553    0.0273 C   0  0  0  0  0  0  0  0  0  0  0  0
    5.4840    0.2784    0.2425 C   0  0  0  0  0  0  0  0  0  0  0  0
    4.7367    1.4577    0.1773 C   0  0  0  0  0  0  0  0  0  0  0  0
    3.3685    1.4058   -0.1074 C   0  0  0  0  0  0  0  0  0  0  0  0
   -1.6263   -1.3120    0.2615 C   0  0  0  0  0  0  0  0  0  0  0  0
   -4.5191   -2.6829   -0.8586 H   0  0  0  0  0  0  0  0  0  0  0  0
   -4.0092   -3.0750    0.8317 H   0  0  0  0  0  0  0  0  0  0  0  0
   -2.9401   -3.4889   -0.5670 H   0  0  0  0  0  0  0  0  0  0  0  0
   -4.8151   -0.2941   -0.3393 H   0  0  0  0  0  0  0  0  0  0  0  0
   -5.0436    2.0507   -0.3141 H   0  0  0  0  0  0  0  0  0  0  0  0
   -3.9097    2.8797    0.8106 H   0  0  0  0  0  0  0  0  0  0  0  0
   -3.5929    2.8905   -0.9714 H   0  0  0  0  0  0  0  0  0  0  0  0
    0.7142    0.8544    1.3623 H   0  0  0  0  0  0  0  0  0  0  0  0
    0.7985   -0.9243    1.2436 H   0  0  0  0  0  0  0  0  0  0  0  0
    1.0336   -0.7625   -1.2617 H   0  0  0  0  0  0  0  0  0  0  0  0
    0.9433    1.0237   -1.1590 H   0  0  0  0  0  0  0  0  0  0  0  0
    3.0246   -1.9746   -0.4130 H   0  0  0  0  0  0  0  0  0  0  0  0
    5.4417   -1.8684    0.0848 H   0  0  0  0  0  0  0  0  0  0  0  0
    6.5425    0.3202    0.4642 H   0  0  0  0  0  0  0  0  0  0  0  0
    5.2169    2.4121    0.3508 H   0  0  0  0  0  0  0  0  0  0  0  0
    2.7987    2.3261   -0.1457 H   0  0  0  0  0  0  0  0  0  0  0  0
   -1.0418   -2.2199    0.3563 H   0  0  0  0  0  0  0  0  0  0  0  0
  1  2  1  0
  2  3  2  0
  3  4  1  0
  4  5  1  0
  4  6  2  0
  6  7  1  0
  6  8  1  0
  8  9  1  0
  9 10  1  0
 10 11  1  0
 11 12  2  0
 12 13  1  0
 13 14  2  0
 14 15  1  0
 15 16  2  0
  8 17  2  0
 17  2  1  0
 16 11  1  0
  1 18  1  0
  1 19  1  0
  1 20  1  0
  3 21  1  0
  5 22  1  0
  5 23  1  0
  5 24  1  0
  9 25  1  0
  9 26  1  0
 10 27  1  0
 10 28  1  0
 12 29  1  0
 13 30  1  0
 14 31  1  0
 15 32  1  0
 16 33  1  0
 17 34  1  0
M  RAD  1   7   3
M  END
$$$$
