
     RDKit          3D

 34 35  0  0  0  0  0  0  0  0999 V2000
   -3.8171   -2.2827   -1.0466 C   0  0  0  0  0  0  0  0  0  0  0  0
   -3.0744   -1.1205   -0.4556 C   0  0  0  0  0  0  0  0  0  0  0  0
   -3.7606    0.0492   -0.1046 C   0  0  0  0  0  0  0  0  0  0  0  0
   -3.0789    1.1312    0.4737 C   0  0  0  0  0  0  0  0  0  0  0  0
   -3.8261    2.3891    0.8231 C   0  0  0  0  0  0  0  0  0  0  0  0
   -1.6949    1.0313    0.7172 C   0  0  0  0  0  0  0  0  0  0  0  0
   -0.9928    2.1369    1.2872 N   0  0  0  0  0  1  0  0  0  0  0  0
   -1.0050   -0.1574    0.3991 C   0  0  0  0  0  0  0  0  0  0  0  0
    0.4818   -0.2852    0.6286 C   0  0  0  0  0  0  0  0  0  0  0  0
    1.2613    0.2580   -0.5728 C   0  0  0  0  0  0  0  0  0  0  0  0
    2.7432    0.1340   -0.3418 C   0  0  0  0  0  0  0  0  0  0  0  0
    3.4239   -1.0363   -0.7173 C   0  0  0  0  0  0  0  0  0  0  0  0
    4.7948   -1.1629   -0.4718 C   0  0  0  0  0  0  0  0  0  0  0  0
    5.4923   -0.1282    0.1578 C   0  0  0  0  0  0  0  0  0  0  0  0
    4.8192    1.0332    0.5469 C   0  0  0  0  0  0  0  0  0  0  0  0
    3.4483    1.1639    0.3034 C   0  0  0  0  0  0  0  0  0  0  0  0
   -1.7025   -1.2227   -0.1919 C   0  0  0  0  0  0  0  0  0  0  0  0
   -4.1855   -2.9386   -0.2305 H   0  0  0  0  0  0  0  0  0  0  0  0
   -3.1545   -2.8730   -1.7149 H   0  0  0  0  0  0  0  0  0  0  0  0
   -4.6827   -1.9308   -1.6475 H   0  0  0  0  0  0  0  0  0  0  0  0
   -4.8265    0.1176   -0.2882 H   0  0  0  0  0  0  0  0  0  0  0  0
   -3.7176    2.6004    1.9078 H   0  0  0  0  0  0  0  0  0  0  0  0
   -4.9093    2.3010    0.5933 H   0  0  0  0  0  0  0  0  0  0  0  0
   -3.4146    3.2414    0.2425 H   0  0  0  0  0  0  0  0  0  0  0  0
    0.7490   -1.3529    0.7921 H   0  0  0  0  0  0  0  0  0  0  0  0
    0.7758    0.2624    1.5506 H   0  0  0  0  0  0  0  0  0  0  0  0
    0.9748   -0.3035   -1.4896 H   0  0  0  0  0  0  0  0  0  0  0  0
    0.9962    1.3248   -0.7430 H   0  0  0  0  0  0  0  0  0  0  0  0
    2.8931   -1.8492   -1.1974 H   0  0  0  0  0  0  0  0  0  0  0  0
    5.3158   -2.0646   -0.7666 H   0  0  0  0  0  0  0  0  0  0  0  0
    6.5530   -0.2283    0.3483 H   0  0  0  0  0  0  0  0  0  0  0  0
    5.3590    1.8310    1.0405 H   0  0  0  0  0  0  0  0  0  0  0  0
    2.9364    2.0649    0.6183 H   0  0  0  0  0  0  0  0  0  0  0  0
   -1.1746   -2.1335   -0.4503 H   0  0  0  0  0  0  0  0  0  0  0  0
  1  2  1  0
  2  3  2  0
  3  4  1  0
  4  5  1  0
  4  6  2  0
  6  7  1  0
  6  8  1  0
  8  9  1  0
  9 10  1  0
 10 11  1  0
 11 12  2  0
 12 13  1  0
 13 14  2  0
 14 15  1  0
 15 16  2  0
  8 17  2  0
 17  2  1  0
 16 11  1  0
  1 18  1  0
  1 19  1  0
  1 20  1  0
  3 21  1  0
  5 22  1  0
  5 23  1  0
  5 24  1  0
  9 25  1  0
  9 26  1  0
 10 27  1  0
 10 28  1  0
 12 29  1  0
 13 30  1  0
 14 31  1  0
 15 32  1  0
 16 33  1  0
 17 34  1  0
M  RAD  1   7   3
M  END
$$$$
