
     RDKit          3D

 34 35  0  0  0  0  0  0  0  0999 V2000
   -3.7009   -0.8461   -2.5663 C   0  0  0  0  0  0  0  0  0  0  0  0
   -3.0111   -0.3045   -1.3488 C   0  0  0  0  0  0  0  0  0  0  0  0
   -3.7568    0.0600   -0.2202 C   0  0  0  0  0  0  0  0  0  0  0  0
   -3.1231    0.5926    0.9132 C   0  0  0  0  0  0  0  0  0  0  0  0
   -3.9354    0.9569    2.1257 C   0  0  0  0  0  0  0  0  0  0  0  0
   -1.7265    0.7764    0.9073 C   0  0  0  0  0  0  0  0  0  0  0  0
   -1.0744    1.2996    2.0655 N   0  0  0  0  0  1  0  0  0  0  0  0
   -0.9745    0.4450   -0.2394 C   0  0  0  0  0  0  0  0  0  0  0  0
    0.5260    0.6107   -0.2667 C   0  0  0  0  0  0  0  0  0  0  0  0
    1.2160   -0.6312    0.3057 C   0  0  0  0  0  0  0  0  0  0  0  0
    2.7114   -0.4637    0.2821 C   0  0  0  0  0  0  0  0  0  0  0  0
    3.4506   -0.8526   -0.8477 C   0  0  0  0  0  0  0  0  0  0  0  0
    4.8361   -0.6658   -0.8808 C   0  0  0  0  0  0  0  0  0  0  0  0
    5.4906   -0.0817    0.2072 C   0  0  0  0  0  0  0  0  0  0  0  0
    4.7600    0.3206    1.3288 C   0  0  0  0  0  0  0  0  0  0  0  0
    3.3744    0.1356    1.3662 C   0  0  0  0  0  0  0  0  0  0  0  0
   -1.6254   -0.1000   -1.3574 C   0  0  0  0  0  0  0  0  0  0  0  0
   -3.0302   -1.5340   -3.1240 H   0  0  0  0  0  0  0  0  0  0  0  0
   -3.9909   -0.0055   -3.2306 H   0  0  0  0  0  0  0  0  0  0  0  0
   -4.6123   -1.4138   -2.2812 H   0  0  0  0  0  0  0  0  0  0  0  0
   -4.8317   -0.0776   -0.2241 H   0  0  0  0  0  0  0  0  0  0  0  0
   -5.0194    0.7761    1.9638 H   0  0  0  0  0  0  0  0  0  0  0  0
   -3.6059    0.3470    2.9931 H   0  0  0  0  0  0  0  0  0  0  0  0
   -3.7945    2.0327    2.3618 H   0  0  0  0  0  0  0  0  0  0  0  0
    0.8693    0.7771   -1.3119 H   0  0  0  0  0  0  0  0  0  0  0  0
    0.8228    1.5112    0.3141 H   0  0  0  0  0  0  0  0  0  0  0  0
    0.8744   -0.8044    1.3501 H   0  0  0  0  0  0  0  0  0  0  0  0
    0.9278   -1.5266   -0.2884 H   0  0  0  0  0  0  0  0  0  0  0  0
    2.9541   -1.2977   -1.7011 H   0  0  0  0  0  0  0  0  0  0  0  0
    5.4020   -0.9707   -1.7516 H   0  0  0  0  0  0  0  0  0  0  0  0
    6.5628    0.0634    0.1794 H   0  0  0  0  0  0  0  0  0  0  0  0
    5.2670    0.7790    2.1680 H   0  0  0  0  0  0  0  0  0  0  0  0
    2.8185    0.4603    2.2371 H   0  0  0  0  0  0  0  0  0  0  0  0
   -1.0506   -0.3685   -2.2362 H   0  0  0  0  0  0  0  0  0  0  0  0
  1  2  1  0
  2  3  2  0
  3  4  1  0
  4  5  1  0
  4  6  2  0
  6  7  1  0
  6  8  1  0
  8  9  1  0
  9 10  1  0
 10 11  1  0
 11 12  2  0
 12 13  1  0
 13 14  2  0
 14 15  1  0
 15 16  2  0
  8 17  2  0
 17  2  1  0
 16 11  1  0
  1 18  1  0
  1 19  1  0
  1 20  1  0
  3 21  1  0
  5 22  1  0
  5 23  1  0
  5 24  1  0
  9 25  1  0
  9 26  1  0
 10 27  1  0
 10 28  1  0
 12 29  1  0
 13 30  1  0
 14 31  1  0
 15 32  1  0
 16 33  1  0
 17 34  1  0
M  RAD  1   7   3
M  END
$$$$
