
     RDKit          3D

 34 35  0  0  0  0  0  0  0  0999 V2000
   -3.7480   -0.4895   -1.8600 C   0  0  0  0  0  0  0  0  0  0  0  0
   -2.7100   -0.4217   -0.7787 C   0  0  0  0  0  0  0  0  0  0  0  0
   -2.7631    0.5925    0.1858 C   0  0  0  0  0  0  0  0  0  0  0  0
   -1.7735    0.6894    1.1759 C   0  0  0  0  0  0  0  0  0  0  0  0
   -1.8392    1.7921    2.1967 C   0  0  0  0  0  0  0  0  0  0  0  0
   -0.7081   -0.2320    1.1876 C   0  0  0  0  0  0  0  0  0  0  0  0
    0.3108   -0.1222    2.1825 N   0  0  0  0  0  1  0  0  0  0  0  0
   -0.6399   -1.2471    0.2086 C   0  0  0  0  0  0  0  0  0  0  0  0
    0.5256   -2.2097    0.1460 C   0  0  0  0  0  0  0  0  0  0  0  0
    1.5705   -1.7733   -0.8912 C   0  0  0  0  0  0  0  0  0  0  0  0
    2.2148   -0.4619   -0.5209 C   0  0  0  0  0  0  0  0  0  0  0  0
    3.2686   -0.4287    0.4075 C   0  0  0  0  0  0  0  0  0  0  0  0
    3.8325    0.7927    0.7890 C   0  0  0  0  0  0  0  0  0  0  0  0
    3.3444    1.9877    0.2531 C   0  0  0  0  0  0  0  0  0  0  0  0
    2.2911    1.9635   -0.6650 C   0  0  0  0  0  0  0  0  0  0  0  0
    1.7258    0.7445   -1.0510 C   0  0  0  0  0  0  0  0  0  0  0  0
   -1.6394   -1.3244   -0.7739 C   0  0  0  0  0  0  0  0  0  0  0  0
   -3.8915   -1.5370   -2.2007 H   0  0  0  0  0  0  0  0  0  0  0  0
   -3.4239    0.1305   -2.7218 H   0  0  0  0  0  0  0  0  0  0  0  0
   -4.7255   -0.1131   -1.4898 H   0  0  0  0  0  0  0  0  0  0  0  0
   -3.5759    1.3090    0.1620 H   0  0  0  0  0  0  0  0  0  0  0  0
   -1.8135    1.3604    3.2195 H   0  0  0  0  0  0  0  0  0  0  0  0
   -0.9712    2.4722    2.0658 H   0  0  0  0  0  0  0  0  0  0  0  0
   -2.7709    2.3887    2.0973 H   0  0  0  0  0  0  0  0  0  0  0  0
    0.1492   -3.2178   -0.1338 H   0  0  0  0  0  0  0  0  0  0  0  0
    1.0073   -2.3267    1.1405 H   0  0  0  0  0  0  0  0  0  0  0  0
    2.3535   -2.5593   -0.9634 H   0  0  0  0  0  0  0  0  0  0  0  0
    1.0972   -1.7024   -1.8953 H   0  0  0  0  0  0  0  0  0  0  0  0
    3.6465   -1.3468    0.8399 H   0  0  0  0  0  0  0  0  0  0  0  0
    4.6444    0.8132    1.5044 H   0  0  0  0  0  0  0  0  0  0  0  0
    3.7798    2.9323    0.5521 H   0  0  0  0  0  0  0  0  0  0  0  0
    1.9091    2.8899   -1.0740 H   0  0  0  0  0  0  0  0  0  0  0  0
    0.9004    0.7410   -1.7523 H   0  0  0  0  0  0  0  0  0  0  0  0
   -1.5779   -2.0860   -1.5427 H   0  0  0  0  0  0  0  0  0  0  0  0
  1  2  1  0
  2  3  2  0
  3  4  1  0
  4  5  1  0
  4  6  2  0
  6  7  1  0
  6  8  1  0
  8  9  1  0
  9 10  1  0
 10 11  1  0
 11 12  2  0
 12 13  1  0
 13 14  2  0
 14 15  1  0
 15 16  2  0
  8 17  2  0
 17  2  1  0
 16 11  1  0
  1 18  1  0
  1 19  1  0
  1 20  1  0
  3 21  1  0
  5 22  1  0
  5 23  1  0
  5 24  1  0
  9 25  1  0
  9 26  1  0
 10 27  1  0
 10 28  1  0
 12 29  1  0
 13 30  1  0
 14 31  1  0
 15 32  1  0
 16 33  1  0
 17 34  1  0
M  RAD  1   7   3
M  END
$$$$
