
     RDKit          3D

 34 35  0  0  0  0  0  0  0  0999 V2000
   -1.4833   -2.8472   -0.7070 C   0  0  0  0  0  0  0  0  0  0  0  0
   -1.6327   -1.3975   -0.3508 C   0  0  0  0  0  0  0  0  0  0  0  0
   -2.5174   -1.0073    0.6626 C   0  0  0  0  0  0  0  0  0  0  0  0
   -2.6260    0.3413    1.0361 C   0  0  0  0  0  0  0  0  0  0  0  0
   -3.5743    0.7414    2.1329 C   0  0  0  0  0  0  0  0  0  0  0  0
   -1.8190    1.3059    0.4015 C   0  0  0  0  0  0  0  0  0  0  0  0
   -1.9040    2.6753    0.7983 N   0  0  0  0  0  1  0  0  0  0  0  0
   -0.9192    0.9183   -0.6131 C   0  0  0  0  0  0  0  0  0  0  0  0
    0.0076    1.9206   -1.2639 C   0  0  0  0  0  0  0  0  0  0  0  0
    1.2525    2.1882   -0.4055 C   0  0  0  0  0  0  0  0  0  0  0  0
    2.0934    0.9479   -0.2381 C   0  0  0  0  0  0  0  0  0  0  0  0
    2.9680    0.5430   -1.2600 C   0  0  0  0  0  0  0  0  0  0  0  0
    3.7078   -0.6361   -1.1275 C   0  0  0  0  0  0  0  0  0  0  0  0
    3.5741   -1.4219    0.0206 C   0  0  0  0  0  0  0  0  0  0  0  0
    2.6997   -1.0303    1.0380 C   0  0  0  0  0  0  0  0  0  0  0  0
    1.9599    0.1490    0.9107 C   0  0  0  0  0  0  0  0  0  0  0  0
   -0.8287   -0.4356   -0.9741 C   0  0  0  0  0  0  0  0  0  0  0  0
   -0.6842   -3.2993   -0.0831 H   0  0  0  0  0  0  0  0  0  0  0  0
   -1.2139   -2.9608   -1.7787 H   0  0  0  0  0  0  0  0  0  0  0  0
   -2.4336   -3.3955   -0.5327 H   0  0  0  0  0  0  0  0  0  0  0  0
   -3.1189   -1.7568    1.1634 H   0  0  0  0  0  0  0  0  0  0  0  0
   -4.2031   -0.1127    2.4632 H   0  0  0  0  0  0  0  0  0  0  0  0
   -4.2494    1.5463    1.7730 H   0  0  0  0  0  0  0  0  0  0  0  0
   -2.9976    1.1122    3.0062 H   0  0  0  0  0  0  0  0  0  0  0  0
   -0.5316    2.8782   -1.4286 H   0  0  0  0  0  0  0  0  0  0  0  0
    0.3200    1.5641   -2.2703 H   0  0  0  0  0  0  0  0  0  0  0  0
    1.8612    2.9800   -0.8940 H   0  0  0  0  0  0  0  0  0  0  0  0
    0.9479    2.5871    0.5868 H   0  0  0  0  0  0  0  0  0  0  0  0
    3.0703    1.1365   -2.1601 H   0  0  0  0  0  0  0  0  0  0  0  0
    4.3809   -0.9435   -1.9173 H   0  0  0  0  0  0  0  0  0  0  0  0
    4.1449   -2.3361    0.1199 H   0  0  0  0  0  0  0  0  0  0  0  0
    2.5913   -1.6434    1.9233 H   0  0  0  0  0  0  0  0  0  0  0  0
    1.2744    0.4327    1.6998 H   0  0  0  0  0  0  0  0  0  0  0  0
   -0.1168   -0.7441   -1.7311 H   0  0  0  0  0  0  0  0  0  0  0  0
  1  2  1  0
  2  3  2  0
  3  4  1  0
  4  5  1  0
  4  6  2  0
  6  7  1  0
  6  8  1  0
  8  9  1  0
  9 10  1  0
 10 11  1  0
 11 12  2  0
 12 13  1  0
 13 14  2  0
 14 15  1  0
 15 16  2  0
  8 17  2  0
 17  2  1  0
 16 11  1  0
  1 18  1  0
  1 19  1  0
  1 20  1  0
  3 21  1  0
  5 22  1  0
  5 23  1  0
  5 24  1  0
  9 25  1  0
  9 26  1  0
 10 27  1  0
 10 28  1  0
 12 29  1  0
 13 30  1  0
 14 31  1  0
 15 32  1  0
 16 33  1  0
 17 34  1  0
M  RAD  1   7   3
M  END
$$$$
