
     RDKit          3D

 34 35  0  0  0  0  0  0  0  0999 V2000
   -3.8489   -1.9776   -1.5282 C   0  0  0  0  0  0  0  0  0  0  0  0
   -3.0743   -0.8384   -0.9333 C   0  0  0  0  0  0  0  0  0  0  0  0
   -3.7467    0.2258   -0.3187 C   0  0  0  0  0  0  0  0  0  0  0  0
   -3.0321    1.3086    0.2167 C   0  0  0  0  0  0  0  0  0  0  0  0
   -3.7677    2.4321    0.8944 C   0  0  0  0  0  0  0  0  0  0  0  0
   -1.6269    1.3308    0.1193 C   0  0  0  0  0  0  0  0  0  0  0  0
   -0.8935    2.4209    0.6800 N   0  0  0  0  0  1  0  0  0  0  0  0
   -0.9464    0.2796   -0.5303 C   0  0  0  0  0  0  0  0  0  0  0  0
    0.5600    0.2658   -0.6305 C   0  0  0  0  0  0  0  0  0  0  0  0
    1.1776   -0.3678    0.6198 C   0  0  0  0  0  0  0  0  0  0  0  0
    2.6793   -0.3776    0.5212 C   0  0  0  0  0  0  0  0  0  0  0  0
    3.3435   -1.4605   -0.0788 C   0  0  0  0  0  0  0  0  0  0  0  0
    4.7367   -1.4527   -0.1991 C   0  0  0  0  0  0  0  0  0  0  0  0
    5.4742   -0.3616    0.2688 C   0  0  0  0  0  0  0  0  0  0  0  0
    4.8194    0.7256    0.8541 C   0  0  0  0  0  0  0  0  0  0  0  0
    3.4263    0.7219    0.9764 C   0  0  0  0  0  0  0  0  0  0  0  0
   -1.6786   -0.8013   -1.0463 C   0  0  0  0  0  0  0  0  0  0  0  0
   -3.2529   -2.9146   -1.5000 H   0  0  0  0  0  0  0  0  0  0  0  0
   -4.7879   -2.1524   -0.9608 H   0  0  0  0  0  0  0  0  0  0  0  0
   -4.1018   -1.7408   -2.5827 H   0  0  0  0  0  0  0  0  0  0  0  0
   -4.8283    0.2063   -0.2527 H   0  0  0  0  0  0  0  0  0  0  0  0
   -3.5384    3.3915    0.3845 H   0  0  0  0  0  0  0  0  0  0  0  0
   -3.4509    2.4988    1.9565 H   0  0  0  0  0  0  0  0  0  0  0  0
   -4.8675    2.2787    0.8673 H   0  0  0  0  0  0  0  0  0  0  0  0
    0.8742   -0.3079   -1.5307 H   0  0  0  0  0  0  0  0  0  0  0  0
    0.9450    1.3007   -0.7609 H   0  0  0  0  0  0  0  0  0  0  0  0
    0.8012   -1.4082    0.7369 H   0  0  0  0  0  0  0  0  0  0  0  0
    0.8647    0.1998    1.5238 H   0  0  0  0  0  0  0  0  0  0  0  0
    2.7828   -2.3078   -0.4539 H   0  0  0  0  0  0  0  0  0  0  0  0
    5.2443   -2.2911   -0.6583 H   0  0  0  0  0  0  0  0  0  0  0  0
    6.5524   -0.3565    0.1737 H   0  0  0  0  0  0  0  0  0  0  0  0
    5.3910    1.5730    1.2100 H   0  0  0  0  0  0  0  0  0  0  0  0
    2.9300    1.5746    1.4233 H   0  0  0  0  0  0  0  0  0  0  0  0
   -1.1597   -1.6179   -1.5348 H   0  0  0  0  0  0  0  0  0  0  0  0
  1  2  1  0
  2  3  2  0
  3  4  1  0
  4  5  1  0
  4  6  2  0
  6  7  1  0
  6  8  1  0
  8  9  1  0
  9 10  1  0
 10 11  1  0
 11 12  2  0
 12 13  1  0
 13 14  2  0
 14 15  1  0
 15 16  2  0
  8 17  2  0
 17  2  1  0
 16 11  1  0
  1 18  1  0
  1 19  1  0
  1 20  1  0
  3 21  1  0
  5 22  1  0
  5 23  1  0
  5 24  1  0
  9 25  1  0
  9 26  1  0
 10 27  1  0
 10 28  1  0
 12 29  1  0
 13 30  1  0
 14 31  1  0
 15 32  1  0
 16 33  1  0
 17 34  1  0
M  RAD  1   7   3
M  END
$$$$
