
     RDKit          3D

 34 35  0  0  0  0  0  0  0  0999 V2000
   -3.6397   -2.7190   -0.3531 C   0  0  0  0  0  0  0  0  0  0  0  0
   -2.9904   -1.4188    0.0200 C   0  0  0  0  0  0  0  0  0  0  0  0
   -3.7528   -0.2457    0.0911 C   0  0  0  0  0  0  0  0  0  0  0  0
   -3.1470    0.9829    0.3965 C   0  0  0  0  0  0  0  0  0  0  0  0
   -3.9791    2.2344    0.4597 C   0  0  0  0  0  0  0  0  0  0  0  0
   -1.7565    1.0371    0.6167 C   0  0  0  0  0  0  0  0  0  0  0  0
   -1.1311    2.2892    0.9017 N   0  0  0  0  0  1  0  0  0  0  0  0
   -0.9826   -0.1402    0.5438 C   0  0  0  0  0  0  0  0  0  0  0  0
    0.5147   -0.1059    0.7345 C   0  0  0  0  0  0  0  0  0  0  0  0
    1.2197    0.2107   -0.5879 C   0  0  0  0  0  0  0  0  0  0  0  0
    2.7118    0.2487   -0.3961 C   0  0  0  0  0  0  0  0  0  0  0  0
    3.3480    1.4445   -0.0230 C   0  0  0  0  0  0  0  0  0  0  0  0
    4.7303    1.4707    0.1870 C   0  0  0  0  0  0  0  0  0  0  0  0
    5.4842    0.3035    0.0360 C   0  0  0  0  0  0  0  0  0  0  0  0
    4.8563   -0.8930   -0.3212 C   0  0  0  0  0  0  0  0  0  0  0  0
    3.4742   -0.9236   -0.5322 C   0  0  0  0  0  0  0  0  0  0  0  0
   -1.6064   -1.3572    0.2267 C   0  0  0  0  0  0  0  0  0  0  0  0
   -4.6909   -2.7496    0.0049 H   0  0  0  0  0  0  0  0  0  0  0  0
   -3.0975   -3.5738    0.1045 H   0  0  0  0  0  0  0  0  0  0  0  0
   -3.6296   -2.8330   -1.4572 H   0  0  0  0  0  0  0  0  0  0  0  0
   -4.8193   -0.2908   -0.0959 H   0  0  0  0  0  0  0  0  0  0  0  0
   -5.0612    2.0143    0.3391 H   0  0  0  0  0  0  0  0  0  0  0  0
   -3.8360    2.7324    1.4418 H   0  0  0  0  0  0  0  0  0  0  0  0
   -3.6697    2.9285   -0.3498 H   0  0  0  0  0  0  0  0  0  0  0  0
    0.8696   -1.0883    1.1181 H   0  0  0  0  0  0  0  0  0  0  0  0
    0.7862    0.6530    1.5004 H   0  0  0  0  0  0  0  0  0  0  0  0
    0.9569   -0.5600   -1.3460 H   0  0  0  0  0  0  0  0  0  0  0  0
    0.8666    1.1908   -0.9780 H   0  0  0  0  0  0  0  0  0  0  0  0
    2.7738    2.3536    0.1064 H   0  0  0  0  0  0  0  0  0  0  0  0
    5.2167    2.3952    0.4703 H   0  0  0  0  0  0  0  0  0  0  0  0
    6.5538    0.3252    0.2003 H   0  0  0  0  0  0  0  0  0  0  0  0
    5.4401   -1.7977   -0.4313 H   0  0  0  0  0  0  0  0  0  0  0  0
    2.9984   -1.8591   -0.7994 H   0  0  0  0  0  0  0  0  0  0  0  0
   -1.0117   -2.2591    0.1382 H   0  0  0  0  0  0  0  0  0  0  0  0
  1  2  1  0
  2  3  2  0
  3  4  1  0
  4  5  1  0
  4  6  2  0
  6  7  1  0
  6  8  1  0
  8  9  1  0
  9 10  1  0
 10 11  1  0
 11 12  2  0
 12 13  1  0
 13 14  2  0
 14 15  1  0
 15 16  2  0
  8 17  2  0
 17  2  1  0
 16 11  1  0
  1 18  1  0
  1 19  1  0
  1 20  1  0
  3 21  1  0
  5 22  1  0
  5 23  1  0
  5 24  1  0
  9 25  1  0
  9 26  1  0
 10 27  1  0
 10 28  1  0
 12 29  1  0
 13 30  1  0
 14 31  1  0
 15 32  1  0
 16 33  1  0
 17 34  1  0
M  RAD  1   7   3
M  END
$$$$
