
     RDKit          3D

 34 35  0  0  0  0  0  0  0  0999 V2000
   -2.1587   -2.1657    1.2571 C   0  0  0  0  0  0  0  0  0  0  0  0
   -1.8940   -0.9441    0.4272 C   0  0  0  0  0  0  0  0  0  0  0  0
   -2.7457    0.1649    0.5106 C   0  0  0  0  0  0  0  0  0  0  0  0
   -2.5161    1.3028   -0.2782 C   0  0  0  0  0  0  0  0  0  0  0  0
   -3.4257    2.4948   -0.1588 C   0  0  0  0  0  0  0  0  0  0  0  0
   -1.4234    1.3242   -1.1670 C   0  0  0  0  0  0  0  0  0  0  0  0
   -1.1714    2.4885   -1.9549 N   0  0  0  0  0  1  0  0  0  0  0  0
   -0.5798    0.1993   -1.2775 C   0  0  0  0  0  0  0  0  0  0  0  0
    0.6273    0.2108   -2.1886 C   0  0  0  0  0  0  0  0  0  0  0  0
    1.8286    0.9094   -1.5353 C   0  0  0  0  0  0  0  0  0  0  0  0
    2.2959    0.1803   -0.3011 C   0  0  0  0  0  0  0  0  0  0  0  0
    3.1069   -0.9606   -0.4182 C   0  0  0  0  0  0  0  0  0  0  0  0
    3.4965   -1.6678    0.7235 C   0  0  0  0  0  0  0  0  0  0  0  0
    3.0736   -1.2461    1.9872 C   0  0  0  0  0  0  0  0  0  0  0  0
    2.2597   -0.1169    2.1113 C   0  0  0  0  0  0  0  0  0  0  0  0
    1.8696    0.5943    0.9727 C   0  0  0  0  0  0  0  0  0  0  0  0
   -0.8264   -0.9287   -0.4785 C   0  0  0  0  0  0  0  0  0  0  0  0
   -2.8068   -2.8648    0.6886 H   0  0  0  0  0  0  0  0  0  0  0  0
   -1.2067   -2.6787    1.5116 H   0  0  0  0  0  0  0  0  0  0  0  0
   -2.6650   -1.8939    2.2078 H   0  0  0  0  0  0  0  0  0  0  0  0
   -3.5850    0.1425    1.1959 H   0  0  0  0  0  0  0  0  0  0  0  0
   -3.8580    2.7384   -1.1522 H   0  0  0  0  0  0  0  0  0  0  0  0
   -2.8490    3.3681    0.2122 H   0  0  0  0  0  0  0  0  0  0  0  0
   -4.2631    2.3037    0.5456 H   0  0  0  0  0  0  0  0  0  0  0  0
    0.3765    0.7326   -3.1371 H   0  0  0  0  0  0  0  0  0  0  0  0
    0.9100   -0.8272   -2.4718 H   0  0  0  0  0  0  0  0  0  0  0  0
    2.6608    0.9541   -2.2711 H   0  0  0  0  0  0  0  0  0  0  0  0
    1.5648    1.9611   -1.2882 H   0  0  0  0  0  0  0  0  0  0  0  0
    3.4303   -1.3048   -1.3928 H   0  0  0  0  0  0  0  0  0  0  0  0
    4.1220   -2.5459    0.6282 H   0  0  0  0  0  0  0  0  0  0  0  0
    3.3733   -1.7966    2.8695 H   0  0  0  0  0  0  0  0  0  0  0  0
    1.9267    0.2044    3.0897 H   0  0  0  0  0  0  0  0  0  0  0  0
    1.2261    1.4586    1.0820 H   0  0  0  0  0  0  0  0  0  0  0  0
   -0.1739   -1.7913   -0.5495 H   0  0  0  0  0  0  0  0  0  0  0  0
  1  2  1  0
  2  3  2  0
  3  4  1  0
  4  5  1  0
  4  6  2  0
  6  7  1  0
  6  8  1  0
  8  9  1  0
  9 10  1  0
 10 11  1  0
 11 12  2  0
 12 13  1  0
 13 14  2  0
 14 15  1  0
 15 16  2  0
  8 17  2  0
 17  2  1  0
 16 11  1  0
  1 18  1  0
  1 19  1  0
  1 20  1  0
  3 21  1  0
  5 22  1  0
  5 23  1  0
  5 24  1  0
  9 25  1  0
  9 26  1  0
 10 27  1  0
 10 28  1  0
 12 29  1  0
 13 30  1  0
 14 31  1  0
 15 32  1  0
 16 33  1  0
 17 34  1  0
M  RAD  1   7   3
M  END
$$$$
