
     RDKit          3D

 34 35  0  0  0  0  0  0  0  0999 V2000
    3.8323    1.8566   -1.6566 C   0  0  0  0  0  0  0  0  0  0  0  0
    3.0747    0.9897   -0.6942 C   0  0  0  0  0  0  0  0  0  0  0  0
    3.7591    0.0868    0.1296 C   0  0  0  0  0  0  0  0  0  0  0  0
    3.0617   -0.7089    1.0518 C   0  0  0  0  0  0  0  0  0  0  0  0
    3.8089   -1.6905    1.9125 C   0  0  0  0  0  0  0  0  0  0  0  0
    1.6626   -0.5848    1.1594 C   0  0  0  0  0  0  0  0  0  0  0  0
    0.9459   -1.4062    2.0823 N   0  0  0  0  0  1  0  0  0  0  0  0
    0.9718    0.3485    0.3580 C   0  0  0  0  0  0  0  0  0  0  0  0
   -0.5295    0.4879    0.4361 C   0  0  0  0  0  0  0  0  0  0  0  0
   -1.2135   -0.5210   -0.4913 C   0  0  0  0  0  0  0  0  0  0  0  0
   -2.7100   -0.3843   -0.4100 C   0  0  0  0  0  0  0  0  0  0  0  0
   -3.3874    0.5096   -1.2563 C   0  0  0  0  0  0  0  0  0  0  0  0
   -4.7742    0.6594   -1.1566 C   0  0  0  0  0  0  0  0  0  0  0  0
   -5.4917   -0.0731   -0.2069 C   0  0  0  0  0  0  0  0  0  0  0  0
   -4.8229   -0.9538    0.6479 C   0  0  0  0  0  0  0  0  0  0  0  0
   -3.4362   -1.1067    0.5517 C   0  0  0  0  0  0  0  0  0  0  0  0
    1.6861    1.1245   -0.5684 C   0  0  0  0  0  0  0  0  0  0  0  0
    3.2048    2.1044   -2.5392 H   0  0  0  0  0  0  0  0  0  0  0  0
    4.7436    1.3359   -2.0204 H   0  0  0  0  0  0  0  0  0  0  0  0
    4.1310    2.7975   -1.1491 H   0  0  0  0  0  0  0  0  0  0  0  0
    4.8363    0.0005    0.0469 H   0  0  0  0  0  0  0  0  0  0  0  0
    3.4557   -2.7209    1.6967 H   0  0  0  0  0  0  0  0  0  0  0  0
    3.6308   -1.4608    2.9841 H   0  0  0  0  0  0  0  0  0  0  0  0
    4.9033   -1.6507    1.7262 H   0  0  0  0  0  0  0  0  0  0  0  0
   -0.8746    0.3363    1.4821 H   0  0  0  0  0  0  0  0  0  0  0  0
   -0.8292    1.5198    0.1470 H   0  0  0  0  0  0  0  0  0  0  0  0
   -0.9154   -1.5548   -0.2090 H   0  0  0  0  0  0  0  0  0  0  0  0
   -0.8765   -0.3549   -1.5385 H   0  0  0  0  0  0  0  0  0  0  0  0
   -2.8418    1.0900   -1.9901 H   0  0  0  0  0  0  0  0  0  0  0  0
   -5.2923    1.3462   -1.8135 H   0  0  0  0  0  0  0  0  0  0  0  0
   -6.5648    0.0450   -0.1302 H   0  0  0  0  0  0  0  0  0  0  0  0
   -5.3787   -1.5155    1.3876 H   0  0  0  0  0  0  0  0  0  0  0  0
   -2.9286   -1.7852    1.2262 H   0  0  0  0  0  0  0  0  0  0  0  0
    1.1586    1.8337   -1.1957 H   0  0  0  0  0  0  0  0  0  0  0  0
  1  2  1  0
  2  3  2  0
  3  4  1  0
  4  5  1  0
  4  6  2  0
  6  7  1  0
  6  8  1  0
  8  9  1  0
  9 10  1  0
 10 11  1  0
 11 12  2  0
 12 13  1  0
 13 14  2  0
 14 15  1  0
 15 16  2  0
  8 17  2  0
 17  2  1  0
 16 11  1  0
  1 18  1  0
  1 19  1  0
  1 20  1  0
  3 21  1  0
  5 22  1  0
  5 23  1  0
  5 24  1  0
  9 25  1  0
  9 26  1  0
 10 27  1  0
 10 28  1  0
 12 29  1  0
 13 30  1  0
 14 31  1  0
 15 32  1  0
 16 33  1  0
 17 34  1  0
M  RAD  1   7   3
M  END
$$$$
