
     RDKit          3D

 34 35  0  0  0  0  0  0  0  0999 V2000
   -1.3359   -2.2146    2.0851 C   0  0  0  0  0  0  0  0  0  0  0  0
   -1.5329   -1.3035    0.9096 C   0  0  0  0  0  0  0  0  0  0  0  0
   -2.6253   -0.4275    0.8708 C   0  0  0  0  0  0  0  0  0  0  0  0
   -2.7892    0.4632   -0.2014 C   0  0  0  0  0  0  0  0  0  0  0  0
   -3.9630    1.4035   -0.2222 C   0  0  0  0  0  0  0  0  0  0  0  0
   -1.8317    0.4920   -1.2344 C   0  0  0  0  0  0  0  0  0  0  0  0
   -1.9777    1.4171   -2.3127 N   0  0  0  0  0  1  0  0  0  0  0  0
   -0.7244   -0.3807   -1.1965 C   0  0  0  0  0  0  0  0  0  0  0  0
    0.3541   -0.3252   -2.2554 C   0  0  0  0  0  0  0  0  0  0  0  0
    1.3631    0.8002   -1.9840 C   0  0  0  0  0  0  0  0  0  0  0  0
    2.1107    0.5816   -0.6930 C   0  0  0  0  0  0  0  0  0  0  0  0
    1.6878    1.2145    0.4886 C   0  0  0  0  0  0  0  0  0  0  0  0
    2.3483    0.9663    1.6955 C   0  0  0  0  0  0  0  0  0  0  0  0
    3.4316    0.0842    1.7326 C   0  0  0  0  0  0  0  0  0  0  0  0
    3.8543   -0.5537    0.5631 C   0  0  0  0  0  0  0  0  0  0  0  0
    3.1950   -0.3102   -0.6458 C   0  0  0  0  0  0  0  0  0  0  0  0
   -0.5812   -1.2666   -0.1166 C   0  0  0  0  0  0  0  0  0  0  0  0
   -0.7200   -1.6992    2.8514 H   0  0  0  0  0  0  0  0  0  0  0  0
   -2.3127   -2.4956    2.5335 H   0  0  0  0  0  0  0  0  0  0  0  0
   -0.8206   -3.1483    1.7741 H   0  0  0  0  0  0  0  0  0  0  0  0
   -3.3463   -0.4379    1.6798 H   0  0  0  0  0  0  0  0  0  0  0  0
   -4.6720    1.1927    0.6065 H   0  0  0  0  0  0  0  0  0  0  0  0
   -3.6038    2.4491   -0.1205 H   0  0  0  0  0  0  0  0  0  0  0  0
   -4.5136    1.2983   -1.1808 H   0  0  0  0  0  0  0  0  0  0  0  0
    0.8900   -1.2982   -2.3150 H   0  0  0  0  0  0  0  0  0  0  0  0
   -0.1079   -0.1649   -3.2532 H   0  0  0  0  0  0  0  0  0  0  0  0
    0.8390    1.7808   -1.9674 H   0  0  0  0  0  0  0  0  0  0  0  0
    2.0891    0.8410   -2.8250 H   0  0  0  0  0  0  0  0  0  0  0  0
    0.8400    1.8884    0.4770 H   0  0  0  0  0  0  0  0  0  0  0  0
    2.0171    1.4540    2.6031 H   0  0  0  0  0  0  0  0  0  0  0  0
    3.9409   -0.1081    2.6680 H   0  0  0  0  0  0  0  0  0  0  0  0
    4.6896   -1.2412    0.5942 H   0  0  0  0  0  0  0  0  0  0  0  0
    3.5234   -0.8207   -1.5427 H   0  0  0  0  0  0  0  0  0  0  0  0
    0.2840   -1.9177   -0.0660 H   0  0  0  0  0  0  0  0  0  0  0  0
  1  2  1  0
  2  3  2  0
  3  4  1  0
  4  5  1  0
  4  6  2  0
  6  7  1  0
  6  8  1  0
  8  9  1  0
  9 10  1  0
 10 11  1  0
 11 12  2  0
 12 13  1  0
 13 14  2  0
 14 15  1  0
 15 16  2  0
  8 17  2  0
 17  2  1  0
 16 11  1  0
  1 18  1  0
  1 19  1  0
  1 20  1  0
  3 21  1  0
  5 22  1  0
  5 23  1  0
  5 24  1  0
  9 25  1  0
  9 26  1  0
 10 27  1  0
 10 28  1  0
 12 29  1  0
 13 30  1  0
 14 31  1  0
 15 32  1  0
 16 33  1  0
 17 34  1  0
M  RAD  1   7   3
M  END
$$$$
