
     RDKit          3D

 34 35  0  0  0  0  0  0  0  0999 V2000
   -1.5868    2.8095   -0.6289 C   0  0  0  0  0  0  0  0  0  0  0  0
   -1.6813    1.3375   -0.3551 C   0  0  0  0  0  0  0  0  0  0  0  0
   -2.5903    0.8531    0.5942 C   0  0  0  0  0  0  0  0  0  0  0  0
   -2.6500   -0.5171    0.8924 C   0  0  0  0  0  0  0  0  0  0  0  0
   -3.6257   -1.0187    1.9214 C   0  0  0  0  0  0  0  0  0  0  0  0
   -1.7695   -1.4081    0.2478 C   0  0  0  0  0  0  0  0  0  0  0  0
   -1.8056   -2.7992    0.5692 N   0  0  0  0  0  1  0  0  0  0  0  0
   -0.8453   -0.9256   -0.7020 C   0  0  0  0  0  0  0  0  0  0  0  0
    0.1572   -1.8478   -1.3592 C   0  0  0  0  0  0  0  0  0  0  0  0
    1.3741   -2.1033   -0.4580 C   0  0  0  0  0  0  0  0  0  0  0  0
    2.1455   -0.8363   -0.1876 C   0  0  0  0  0  0  0  0  0  0  0  0
    1.9223   -0.1070    0.9931 C   0  0  0  0  0  0  0  0  0  0  0  0
    2.5976    1.0967    1.2155 C   0  0  0  0  0  0  0  0  0  0  0  0
    3.4964    1.5821    0.2618 C   0  0  0  0  0  0  0  0  0  0  0  0
    3.7191    0.8659   -0.9175 C   0  0  0  0  0  0  0  0  0  0  0  0
    3.0441   -0.3373   -1.1451 C   0  0  0  0  0  0  0  0  0  0  0  0
   -0.8046    0.4485   -0.9884 C   0  0  0  0  0  0  0  0  0  0  0  0
   -2.5694    3.3033   -0.4716 H   0  0  0  0  0  0  0  0  0  0  0  0
   -1.2757    2.9927   -1.6795 H   0  0  0  0  0  0  0  0  0  0  0  0
   -0.8391    3.2639    0.0544 H   0  0  0  0  0  0  0  0  0  0  0  0
   -3.2493    1.5462    1.1040 H   0  0  0  0  0  0  0  0  0  0  0  0
   -4.2442   -1.8334    1.4892 H   0  0  0  0  0  0  0  0  0  0  0  0
   -3.0712   -1.4086    2.8007 H   0  0  0  0  0  0  0  0  0  0  0  0
   -4.3093   -0.2133    2.2651 H   0  0  0  0  0  0  0  0  0  0  0  0
   -0.3271   -2.8190   -1.5980 H   0  0  0  0  0  0  0  0  0  0  0  0
    0.4964   -1.4239   -2.3301 H   0  0  0  0  0  0  0  0  0  0  0  0
    2.0416   -2.8388   -0.9573 H   0  0  0  0  0  0  0  0  0  0  0  0
    1.0452   -2.5684    0.4971 H   0  0  0  0  0  0  0  0  0  0  0  0
    1.2168   -0.4639    1.7334 H   0  0  0  0  0  0  0  0  0  0  0  0
    2.4201    1.6559    2.1250 H   0  0  0  0  0  0  0  0  0  0  0  0
    4.0171    2.5150    0.4348 H   0  0  0  0  0  0  0  0  0  0  0  0
    4.4110    1.2459   -1.6580 H   0  0  0  0  0  0  0  0  0  0  0  0
    3.2151   -0.8764   -2.0687 H   0  0  0  0  0  0  0  0  0  0  0  0
   -0.0754    0.8295   -1.6942 H   0  0  0  0  0  0  0  0  0  0  0  0
  1  2  1  0
  2  3  2  0
  3  4  1  0
  4  5  1  0
  4  6  2  0
  6  7  1  0
  6  8  1  0
  8  9  1  0
  9 10  1  0
 10 11  1  0
 11 12  2  0
 12 13  1  0
 13 14  2  0
 14 15  1  0
 15 16  2  0
  8 17  2  0
 17  2  1  0
 16 11  1  0
  1 18  1  0
  1 19  1  0
  1 20  1  0
  3 21  1  0
  5 22  1  0
  5 23  1  0
  5 24  1  0
  9 25  1  0
  9 26  1  0
 10 27  1  0
 10 28  1  0
 12 29  1  0
 13 30  1  0
 14 31  1  0
 15 32  1  0
 16 33  1  0
 17 34  1  0
M  RAD  1   7   3
M  END
$$$$
