
     RDKit          3D

 34 35  0  0  0  0  0  0  0  0999 V2000
    2.7400    2.2718   -2.2535 C   0  0  0  0  0  0  0  0  0  0  0  0
    2.2099    1.2141   -1.3307 C   0  0  0  0  0  0  0  0  0  0  0  0
    2.5513    1.2291    0.0275 C   0  0  0  0  0  0  0  0  0  0  0  0
    2.0270    0.2691    0.9066 C   0  0  0  0  0  0  0  0  0  0  0  0
    2.3946    0.3071    2.3646 C   0  0  0  0  0  0  0  0  0  0  0  0
    1.1356   -0.7069    0.4201 C   0  0  0  0  0  0  0  0  0  0  0  0
    0.5853   -1.6721    1.3176 N   0  0  0  0  0  1  0  0  0  0  0  0
    0.7747   -0.7179   -0.9448 C   0  0  0  0  0  0  0  0  0  0  0  0
   -0.2343   -1.7053   -1.4891 C   0  0  0  0  0  0  0  0  0  0  0  0
   -1.6363   -1.0880   -1.5950 C   0  0  0  0  0  0  0  0  0  0  0  0
   -2.1926   -0.7239   -0.2422 C   0  0  0  0  0  0  0  0  0  0  0  0
   -2.0571    0.5846    0.2528 C   0  0  0  0  0  0  0  0  0  0  0  0
   -2.5269    0.9065    1.5296 C   0  0  0  0  0  0  0  0  0  0  0  0
   -3.1316   -0.0737    2.3211 C   0  0  0  0  0  0  0  0  0  0  0  0
   -3.2649   -1.3785    1.8382 C   0  0  0  0  0  0  0  0  0  0  0  0
   -2.7943   -1.7054    0.5627 C   0  0  0  0  0  0  0  0  0  0  0  0
    1.3092    0.2530   -1.8062 C   0  0  0  0  0  0  0  0  0  0  0  0
    3.7481    2.6067   -1.9285 H   0  0  0  0  0  0  0  0  0  0  0  0
    2.0510    3.1421   -2.2515 H   0  0  0  0  0  0  0  0  0  0  0  0
    2.8269    1.8807   -3.2896 H   0  0  0  0  0  0  0  0  0  0  0  0
    3.2244    1.9925    0.3998 H   0  0  0  0  0  0  0  0  0  0  0  0
    3.1571    1.0869    2.5757 H   0  0  0  0  0  0  0  0  0  0  0  0
    1.4904    0.5273    2.9704 H   0  0  0  0  0  0  0  0  0  0  0  0
    2.8108   -0.6748    2.6737 H   0  0  0  0  0  0  0  0  0  0  0  0
   -0.2736   -2.6265   -0.8692 H   0  0  0  0  0  0  0  0  0  0  0  0
    0.0864   -2.0303   -2.5029 H   0  0  0  0  0  0  0  0  0  0  0  0
   -1.6045   -0.1928   -2.2545 H   0  0  0  0  0  0  0  0  0  0  0  0
   -2.3141   -1.8203   -2.0854 H   0  0  0  0  0  0  0  0  0  0  0  0
   -1.5775    1.3503   -0.3445 H   0  0  0  0  0  0  0  0  0  0  0  0
   -2.4178    1.9148    1.9073 H   0  0  0  0  0  0  0  0  0  0  0  0
   -3.4933    0.1767    3.3100 H   0  0  0  0  0  0  0  0  0  0  0  0
   -3.7281   -2.1381    2.4546 H   0  0  0  0  0  0  0  0  0  0  0  0
   -2.8913   -2.7230    0.2050 H   0  0  0  0  0  0  0  0  0  0  0  0
    1.0156    0.2643   -2.8496 H   0  0  0  0  0  0  0  0  0  0  0  0
  1  2  1  0
  2  3  2  0
  3  4  1  0
  4  5  1  0
  4  6  2  0
  6  7  1  0
  6  8  1  0
  8  9  1  0
  9 10  1  0
 10 11  1  0
 11 12  2  0
 12 13  1  0
 13 14  2  0
 14 15  1  0
 15 16  2  0
  8 17  2  0
 17  2  1  0
 16 11  1  0
  1 18  1  0
  1 19  1  0
  1 20  1  0
  3 21  1  0
  5 22  1  0
  5 23  1  0
  5 24  1  0
  9 25  1  0
  9 26  1  0
 10 27  1  0
 10 28  1  0
 12 29  1  0
 13 30  1  0
 14 31  1  0
 15 32  1  0
 16 33  1  0
 17 34  1  0
M  RAD  1   7   3
M  END
$$$$
