
     RDKit          3D

 34 35  0  0  0  0  0  0  0  0999 V2000
   -3.7574   -2.5555   -0.2645 C   0  0  0  0  0  0  0  0  0  0  0  0
   -3.0463   -1.2538   -0.0377 C   0  0  0  0  0  0  0  0  0  0  0  0
   -3.7544   -0.1343    0.4180 C   0  0  0  0  0  0  0  0  0  0  0  0
   -3.1033    1.0946    0.6072 C   0  0  0  0  0  0  0  0  0  0  0  0
   -3.8730    2.2810    1.1197 C   0  0  0  0  0  0  0  0  0  0  0  0
   -1.7285    1.2047    0.3201 C   0  0  0  0  0  0  0  0  0  0  0  0
   -1.0569    2.4477    0.5298 N   0  0  0  0  0  1  0  0  0  0  0  0
   -1.0177    0.0905   -0.1734 C   0  0  0  0  0  0  0  0  0  0  0  0
    0.4605    0.1730   -0.4690 C   0  0  0  0  0  0  0  0  0  0  0  0
    1.2795   -0.1100    0.7940 C   0  0  0  0  0  0  0  0  0  0  0  0
    2.7528   -0.0235    0.4996 C   0  0  0  0  0  0  0  0  0  0  0  0
    3.4565   -1.1586    0.0632 C   0  0  0  0  0  0  0  0  0  0  0  0
    4.8184   -1.0685   -0.2414 C   0  0  0  0  0  0  0  0  0  0  0  0
    5.4836    0.1549   -0.1223 C   0  0  0  0  0  0  0  0  0  0  0  0
    4.7870    1.2915    0.2978 C   0  0  0  0  0  0  0  0  0  0  0  0
    3.4251    1.2059    0.6034 C   0  0  0  0  0  0  0  0  0  0  0  0
   -1.6843   -1.1335   -0.3420 C   0  0  0  0  0  0  0  0  0  0  0  0
   -3.0656   -3.4118   -0.1149 H   0  0  0  0  0  0  0  0  0  0  0  0
   -4.6025   -2.6704    0.4473 H   0  0  0  0  0  0  0  0  0  0  0  0
   -4.1510   -2.5850   -1.3019 H   0  0  0  0  0  0  0  0  0  0  0  0
   -4.8133   -0.2235    0.6308 H   0  0  0  0  0  0  0  0  0  0  0  0
   -3.4472    2.6114    2.0905 H   0  0  0  0  0  0  0  0  0  0  0  0
   -3.8064    3.1148    0.3894 H   0  0  0  0  0  0  0  0  0  0  0  0
   -4.9463    2.0393    1.2736 H   0  0  0  0  0  0  0  0  0  0  0  0
    0.7302   -0.5632   -1.2586 H   0  0  0  0  0  0  0  0  0  0  0  0
    0.7158    1.1784   -0.8693 H   0  0  0  0  0  0  0  0  0  0  0  0
    1.0317   -1.1230    1.1814 H   0  0  0  0  0  0  0  0  0  0  0  0
    1.0121    0.6214    1.5883 H   0  0  0  0  0  0  0  0  0  0  0  0
    2.9505   -2.1103   -0.0422 H   0  0  0  0  0  0  0  0  0  0  0  0
    5.3573   -1.9466   -0.5733 H   0  0  0  0  0  0  0  0  0  0  0  0
    6.5373    0.2232   -0.3598 H   0  0  0  0  0  0  0  0  0  0  0  0
    5.3016    2.2398    0.3831 H   0  0  0  0  0  0  0  0  0  0  0  0
    2.8945    2.0958    0.9187 H   0  0  0  0  0  0  0  0  0  0  0  0
   -1.1399   -1.9961   -0.7084 H   0  0  0  0  0  0  0  0  0  0  0  0
  1  2  1  0
  2  3  2  0
  3  4  1  0
  4  5  1  0
  4  6  2  0
  6  7  1  0
  6  8  1  0
  8  9  1  0
  9 10  1  0
 10 11  1  0
 11 12  2  0
 12 13  1  0
 13 14  2  0
 14 15  1  0
 15 16  2  0
  8 17  2  0
 17  2  1  0
 16 11  1  0
  1 18  1  0
  1 19  1  0
  1 20  1  0
  3 21  1  0
  5 22  1  0
  5 23  1  0
  5 24  1  0
  9 25  1  0
  9 26  1  0
 10 27  1  0
 10 28  1  0
 12 29  1  0
 13 30  1  0
 14 31  1  0
 15 32  1  0
 16 33  1  0
 17 34  1  0
M  RAD  1   7   3
M  END
$$$$
