
     RDKit          3D

 34 35  0  0  0  0  0  0  0  0999 V2000
   -3.8556   -2.4368    0.2011 C   0  0  0  0  0  0  0  0  0  0  0  0
   -3.1068   -1.1414    0.0889 C   0  0  0  0  0  0  0  0  0  0  0  0
   -3.7531    0.0714    0.3606 C   0  0  0  0  0  0  0  0  0  0  0  0
   -3.0502    1.2848    0.3009 C   0  0  0  0  0  0  0  0  0  0  0  0
   -3.7574    2.5771    0.6046 C   0  0  0  0  0  0  0  0  0  0  0  0
   -1.6782    1.2787   -0.0190 C   0  0  0  0  0  0  0  0  0  0  0  0
   -0.9523    2.5083   -0.0551 N   0  0  0  0  0  1  0  0  0  0  0  0
   -1.0208    0.0605   -0.2909 C   0  0  0  0  0  0  0  0  0  0  0  0
    0.4572    0.0195   -0.5961 C   0  0  0  0  0  0  0  0  0  0  0  0
    1.2734   -0.0499    0.6982 C   0  0  0  0  0  0  0  0  0  0  0  0
    2.7467   -0.0866    0.3932 C   0  0  0  0  0  0  0  0  0  0  0  0
    3.4722    1.1090    0.2578 C   0  0  0  0  0  0  0  0  0  0  0  0
    4.8340    1.0741   -0.0582 C   0  0  0  0  0  0  0  0  0  0  0  0
    5.4775   -0.1516   -0.2504 C   0  0  0  0  0  0  0  0  0  0  0  0
    4.7592   -1.3447   -0.1311 C   0  0  0  0  0  0  0  0  0  0  0  0
    3.3972   -1.3143    0.1847 C   0  0  0  0  0  0  0  0  0  0  0  0
   -1.7396   -1.1430   -0.2156 C   0  0  0  0  0  0  0  0  0  0  0  0
   -3.7859   -2.8143    1.2426 H   0  0  0  0  0  0  0  0  0  0  0  0
   -4.9255   -2.2957   -0.0625 H   0  0  0  0  0  0  0  0  0  0  0  0
   -3.4307   -3.1966   -0.4890 H   0  0  0  0  0  0  0  0  0  0  0  0
   -4.8047    0.0683    0.6227 H   0  0  0  0  0  0  0  0  0  0  0  0
   -4.8460    2.4220    0.7627 H   0  0  0  0  0  0  0  0  0  0  0  0
   -3.6295    3.2843   -0.2420 H   0  0  0  0  0  0  0  0  0  0  0  0
   -3.3299    3.0283    1.5246 H   0  0  0  0  0  0  0  0  0  0  0  0
    0.7524    0.9166   -1.1831 H   0  0  0  0  0  0  0  0  0  0  0  0
    0.6884   -0.8665   -1.2283 H   0  0  0  0  0  0  0  0  0  0  0  0
    1.0443    0.8322    1.3360 H   0  0  0  0  0  0  0  0  0  0  0  0
    0.9853   -0.9571    1.2741 H   0  0  0  0  0  0  0  0  0  0  0  0
    2.9830    2.0655    0.3949 H   0  0  0  0  0  0  0  0  0  0  0  0
    5.3897    1.9976   -0.1574 H   0  0  0  0  0  0  0  0  0  0  0  0
    6.5312   -0.1768   -0.4961 H   0  0  0  0  0  0  0  0  0  0  0  0
    5.2570   -2.2930   -0.2868 H   0  0  0  0  0  0  0  0  0  0  0  0
    2.8497   -2.2454    0.2649 H   0  0  0  0  0  0  0  0  0  0  0  0
   -1.2321   -2.0843   -0.3925 H   0  0  0  0  0  0  0  0  0  0  0  0
  1  2  1  0
  2  3  2  0
  3  4  1  0
  4  5  1  0
  4  6  2  0
  6  7  1  0
  6  8  1  0
  8  9  1  0
  9 10  1  0
 10 11  1  0
 11 12  2  0
 12 13  1  0
 13 14  2  0
 14 15  1  0
 15 16  2  0
  8 17  2  0
 17  2  1  0
 16 11  1  0
  1 18  1  0
  1 19  1  0
  1 20  1  0
  3 21  1  0
  5 22  1  0
  5 23  1  0
  5 24  1  0
  9 25  1  0
  9 26  1  0
 10 27  1  0
 10 28  1  0
 12 29  1  0
 13 30  1  0
 14 31  1  0
 15 32  1  0
 16 33  1  0
 17 34  1  0
M  RAD  1   7   3
M  END
$$$$
