
     RDKit          3D

 34 35  0  0  0  0  0  0  0  0999 V2000
    3.1873    3.1561    1.0477 C   0  0  0  0  0  0  0  0  0  0  0  0
    2.7437    1.7728    0.6719 C   0  0  0  0  0  0  0  0  0  0  0  0
    3.6634    0.8569    0.1449 C   0  0  0  0  0  0  0  0  0  0  0  0
    3.2637   -0.4477   -0.1844 C   0  0  0  0  0  0  0  0  0  0  0  0
    4.2579   -1.4118   -0.7715 C   0  0  0  0  0  0  0  0  0  0  0  0
    1.9289   -0.8420    0.0332 C   0  0  0  0  0  0  0  0  0  0  0  0
    1.5123   -2.1622   -0.3186 N   0  0  0  0  0  1  0  0  0  0  0  0
    1.0068    0.0646    0.5972 C   0  0  0  0  0  0  0  0  0  0  0  0
   -0.4351   -0.3231    0.8215 C   0  0  0  0  0  0  0  0  0  0  0  0
   -1.2628   -0.0757   -0.4433 C   0  0  0  0  0  0  0  0  0  0  0  0
   -2.6990   -0.4661   -0.2205 C   0  0  0  0  0  0  0  0  0  0  0  0
   -3.1213   -1.7835   -0.4656 C   0  0  0  0  0  0  0  0  0  0  0  0
   -4.4486   -2.1533   -0.2268 C   0  0  0  0  0  0  0  0  0  0  0  0
   -5.3593   -1.2150    0.2669 C   0  0  0  0  0  0  0  0  0  0  0  0
   -4.9432    0.0938    0.5265 C   0  0  0  0  0  0  0  0  0  0  0  0
   -3.6168    0.4678    0.2890 C   0  0  0  0  0  0  0  0  0  0  0  0
    1.4230    1.3692    0.9061 C   0  0  0  0  0  0  0  0  0  0  0  0
    4.0116    3.4974    0.3858 H   0  0  0  0  0  0  0  0  0  0  0  0
    2.3485    3.8777    0.9489 H   0  0  0  0  0  0  0  0  0  0  0  0
    3.5433    3.1564    2.0991 H   0  0  0  0  0  0  0  0  0  0  0  0
    4.6904    1.1640   -0.0141 H   0  0  0  0  0  0  0  0  0  0  0  0
    5.2686   -0.9587   -0.8571 H   0  0  0  0  0  0  0  0  0  0  0  0
    4.3345   -2.3112   -0.1249 H   0  0  0  0  0  0  0  0  0  0  0  0
    3.9263   -1.7188   -1.7857 H   0  0  0  0  0  0  0  0  0  0  0  0
   -0.8591    0.2678    1.6637 H   0  0  0  0  0  0  0  0  0  0  0  0
   -0.5030   -1.3931    1.1160 H   0  0  0  0  0  0  0  0  0  0  0  0
   -0.8418   -0.6617   -1.2899 H   0  0  0  0  0  0  0  0  0  0  0  0
   -1.2040    0.9991   -0.7247 H   0  0  0  0  0  0  0  0  0  0  0  0
   -2.4231   -2.5224   -0.8392 H   0  0  0  0  0  0  0  0  0  0  0  0
   -4.7704   -3.1683   -0.4210 H   0  0  0  0  0  0  0  0  0  0  0  0
   -6.3859   -1.5031    0.4525 H   0  0  0  0  0  0  0  0  0  0  0  0
   -5.6477    0.8178    0.9151 H   0  0  0  0  0  0  0  0  0  0  0  0
   -3.3046    1.4825    0.5032 H   0  0  0  0  0  0  0  0  0  0  0  0
    0.7152    2.0737    1.3275 H   0  0  0  0  0  0  0  0  0  0  0  0
  1  2  1  0
  2  3  2  0
  3  4  1  0
  4  5  1  0
  4  6  2  0
  6  7  1  0
  6  8  1  0
  8  9  1  0
  9 10  1  0
 10 11  1  0
 11 12  2  0
 12 13  1  0
 13 14  2  0
 14 15  1  0
 15 16  2  0
  8 17  2  0
 17  2  1  0
 16 11  1  0
  1 18  1  0
  1 19  1  0
  1 20  1  0
  3 21  1  0
  5 22  1  0
  5 23  1  0
  5 24  1  0
  9 25  1  0
  9 26  1  0
 10 27  1  0
 10 28  1  0
 12 29  1  0
 13 30  1  0
 14 31  1  0
 15 32  1  0
 16 33  1  0
 17 34  1  0
M  RAD  1   7   3
M  END
$$$$
