
     RDKit          3D

 34 35  0  0  0  0  0  0  0  0999 V2000
   -1.9758   -2.6019   -0.3647 C   0  0  0  0  0  0  0  0  0  0  0  0
   -1.8497   -1.1491   -0.0124 C   0  0  0  0  0  0  0  0  0  0  0  0
   -2.7239   -0.2086   -0.5722 C   0  0  0  0  0  0  0  0  0  0  0  0
   -2.5811    1.1582   -0.2871 C   0  0  0  0  0  0  0  0  0  0  0  0
   -3.5231    2.1552   -0.9044 C   0  0  0  0  0  0  0  0  0  0  0  0
   -1.5330    1.5882    0.5502 C   0  0  0  0  0  0  0  0  0  0  0  0
   -1.3650    2.9807    0.8198 N   0  0  0  0  0  1  0  0  0  0  0  0
   -0.6435    0.6474    1.1095 C   0  0  0  0  0  0  0  0  0  0  0  0
    0.5306    1.0855    1.9561 C   0  0  0  0  0  0  0  0  0  0  0  0
    1.7174    1.5408    1.0945 C   0  0  0  0  0  0  0  0  0  0  0  0
    2.2589    0.4158    0.2492 C   0  0  0  0  0  0  0  0  0  0  0  0
    1.8526    0.2736   -1.0888 C   0  0  0  0  0  0  0  0  0  0  0  0
    2.3124   -0.8025   -1.8537 C   0  0  0  0  0  0  0  0  0  0  0  0
    3.1767   -1.7444   -1.2891 C   0  0  0  0  0  0  0  0  0  0  0  0
    3.5804   -1.6134    0.0425 C   0  0  0  0  0  0  0  0  0  0  0  0
    3.1210   -0.5399    0.8119 C   0  0  0  0  0  0  0  0  0  0  0  0
   -0.8062   -0.7157    0.8143 C   0  0  0  0  0  0  0  0  0  0  0  0
   -1.3521   -2.8201   -1.2567 H   0  0  0  0  0  0  0  0  0  0  0  0
   -1.6366   -3.2397    0.4793 H   0  0  0  0  0  0  0  0  0  0  0  0
   -3.0323   -2.8627   -0.5880 H   0  0  0  0  0  0  0  0  0  0  0  0
   -3.5142   -0.5428   -1.2342 H   0  0  0  0  0  0  0  0  0  0  0  0
   -3.9767    2.7867   -0.1116 H   0  0  0  0  0  0  0  0  0  0  0  0
   -4.3457    1.6541   -1.4577 H   0  0  0  0  0  0  0  0  0  0  0  0
   -2.9662    2.8035   -1.6132 H   0  0  0  0  0  0  0  0  0  0  0  0
    0.2229    1.9218    2.6200 H   0  0  0  0  0  0  0  0  0  0  0  0
    0.8544    0.2600    2.6279 H   0  0  0  0  0  0  0  0  0  0  0  0
    1.4114    2.3957    0.4525 H   0  0  0  0  0  0  0  0  0  0  0  0
    2.5223    1.9166    1.7630 H   0  0  0  0  0  0  0  0  0  0  0  0
    1.1709    0.9877   -1.5342 H   0  0  0  0  0  0  0  0  0  0  0  0
    1.9945   -0.9090   -2.8828 H   0  0  0  0  0  0  0  0  0  0  0  0
    3.5304   -2.5779   -1.8821 H   0  0  0  0  0  0  0  0  0  0  0  0
    4.2450   -2.3468    0.4803 H   0  0  0  0  0  0  0  0  0  0  0  0
    3.4303   -0.4565    1.8464 H   0  0  0  0  0  0  0  0  0  0  0  0
   -0.1071   -1.4403    1.2158 H   0  0  0  0  0  0  0  0  0  0  0  0
  1  2  1  0
  2  3  2  0
  3  4  1  0
  4  5  1  0
  4  6  2  0
  6  7  1  0
  6  8  1  0
  8  9  1  0
  9 10  1  0
 10 11  1  0
 11 12  2  0
 12 13  1  0
 13 14  2  0
 14 15  1  0
 15 16  2  0
  8 17  2  0
 17  2  1  0
 16 11  1  0
  1 18  1  0
  1 19  1  0
  1 20  1  0
  3 21  1  0
  5 22  1  0
  5 23  1  0
  5 24  1  0
  9 25  1  0
  9 26  1  0
 10 27  1  0
 10 28  1  0
 12 29  1  0
 13 30  1  0
 14 31  1  0
 15 32  1  0
 16 33  1  0
 17 34  1  0
M  RAD  1   7   3
M  END
$$$$
