
     RDKit          3D

 34 35  0  0  0  0  0  0  0  0999 V2000
   -1.6797   -2.7827    0.6405 C   0  0  0  0  0  0  0  0  0  0  0  0
   -1.6705   -1.3622    0.1577 C   0  0  0  0  0  0  0  0  0  0  0  0
   -2.4122   -0.9954   -0.9726 C   0  0  0  0  0  0  0  0  0  0  0  0
   -2.4249    0.3357   -1.4176 C   0  0  0  0  0  0  0  0  0  0  0  0
   -3.2066    0.7085   -2.6473 C   0  0  0  0  0  0  0  0  0  0  0  0
   -1.6909    1.3112   -0.7146 C   0  0  0  0  0  0  0  0  0  0  0  0
   -1.6813    2.6626   -1.1766 N   0  0  0  0  0  1  0  0  0  0  0  0
   -0.9663    0.9538    0.4415 C   0  0  0  0  0  0  0  0  0  0  0  0
   -0.1322    1.9698    1.1894 C   0  0  0  0  0  0  0  0  0  0  0  0
    1.2384    2.1796    0.5297 C   0  0  0  0  0  0  0  0  0  0  0  0
    2.0685    0.9211    0.5529 C   0  0  0  0  0  0  0  0  0  0  0  0
    2.1038    0.0726   -0.5670 C   0  0  0  0  0  0  0  0  0  0  0  0
    2.8297   -1.1214   -0.5232 C   0  0  0  0  0  0  0  0  0  0  0  0
    3.5217   -1.4782    0.6374 C   0  0  0  0  0  0  0  0  0  0  0  0
    3.4863   -0.6429    1.7573 C   0  0  0  0  0  0  0  0  0  0  0  0
    2.7597    0.5512    1.7186 C   0  0  0  0  0  0  0  0  0  0  0  0
   -0.9660   -0.3836    0.8692 C   0  0  0  0  0  0  0  0  0  0  0  0
   -1.8318   -3.4856   -0.2062 H   0  0  0  0  0  0  0  0  0  0  0  0
   -0.7130   -3.0365    1.1257 H   0  0  0  0  0  0  0  0  0  0  0  0
   -2.5007   -2.9175    1.3751 H   0  0  0  0  0  0  0  0  0  0  0  0
   -2.9753   -1.7501   -1.5091 H   0  0  0  0  0  0  0  0  0  0  0  0
   -2.5135    1.0792   -3.4315 H   0  0  0  0  0  0  0  0  0  0  0  0
   -3.9379    1.5067   -2.3998 H   0  0  0  0  0  0  0  0  0  0  0  0
   -3.7666   -0.1590   -3.0569 H   0  0  0  0  0  0  0  0  0  0  0  0
   -0.6692    2.9419    1.2264 H   0  0  0  0  0  0  0  0  0  0  0  0
    0.0088    1.6538    2.2467 H   0  0  0  0  0  0  0  0  0  0  0  0
    1.7786    2.9845    1.0740 H   0  0  0  0  0  0  0  0  0  0  0  0
    1.1036    2.5362   -0.5150 H   0  0  0  0  0  0  0  0  0  0  0  0
    1.5595    0.3295   -1.4675 H   0  0  0  0  0  0  0  0  0  0  0  0
    2.8517   -1.7726   -1.3874 H   0  0  0  0  0  0  0  0  0  0  0  0
    4.0818   -2.4037    0.6703 H   0  0  0  0  0  0  0  0  0  0  0  0
    4.0178   -0.9232    2.6575 H   0  0  0  0  0  0  0  0  0  0  0  0
    2.7292    1.1837    2.5971 H   0  0  0  0  0  0  0  0  0  0  0  0
   -0.4005   -0.6668    1.7495 H   0  0  0  0  0  0  0  0  0  0  0  0
  1  2  1  0
  2  3  2  0
  3  4  1  0
  4  5  1  0
  4  6  2  0
  6  7  1  0
  6  8  1  0
  8  9  1  0
  9 10  1  0
 10 11  1  0
 11 12  2  0
 12 13  1  0
 13 14  2  0
 14 15  1  0
 15 16  2  0
  8 17  2  0
 17  2  1  0
 16 11  1  0
  1 18  1  0
  1 19  1  0
  1 20  1  0
  3 21  1  0
  5 22  1  0
  5 23  1  0
  5 24  1  0
  9 25  1  0
  9 26  1  0
 10 27  1  0
 10 28  1  0
 12 29  1  0
 13 30  1  0
 14 31  1  0
 15 32  1  0
 16 33  1  0
 17 34  1  0
M  RAD  1   7   3
M  END
$$$$
