
     RDKit          3D

 25 26  0  0  0  0  0  0  0  0999 V2000
    1.5970   -2.4521   -1.2371 N   0  0  0  0  0  1  0  0  0  0  0  0
    1.8321   -1.2295   -0.5415 C   0  0  0  0  0  0  0  0  0  0  0  0
    3.1332   -0.9398   -0.1127 C   0  0  0  0  0  0  0  0  0  0  0  0
    3.3995    0.2349    0.5915 C   0  0  0  0  0  0  0  0  0  0  0  0
    2.3657    1.1257    0.8774 C   0  0  0  0  0  0  0  0  0  0  0  0
    1.0637    0.8482    0.4550 C   0  0  0  0  0  0  0  0  0  0  0  0
    0.7765   -0.3244   -0.2762 C   0  0  0  0  0  0  0  0  0  0  0  0
   -0.6551   -0.6434   -0.7036 C   0  0  0  0  0  0  0  0  0  0  0  0
   -1.5072   -1.0854    0.4854 C   0  0  0  0  0  0  0  0  0  0  0  0
   -2.2914    0.1390    0.9244 C   0  0  0  0  0  0  0  0  0  0  0  0
   -2.4298    1.0245   -0.3076 C   0  0  0  0  0  0  0  0  0  0  0  0
   -1.3859    0.5576   -1.3217 C   0  0  0  0  0  0  0  0  0  0  0  0
    3.9404   -1.6309   -0.3211 H   0  0  0  0  0  0  0  0  0  0  0  0
    4.4073    0.4516    0.9214 H   0  0  0  0  0  0  0  0  0  0  0  0
    2.5725    2.0327    1.4308 H   0  0  0  0  0  0  0  0  0  0  0  0
    0.2831    1.5558    0.6974 H   0  0  0  0  0  0  0  0  0  0  0  0
   -0.6509   -1.4598   -1.4584 H   0  0  0  0  0  0  0  0  0  0  0  0
   -0.8993   -1.4970    1.3214 H   0  0  0  0  0  0  0  0  0  0  0  0
   -2.2217   -1.8714    0.1534 H   0  0  0  0  0  0  0  0  0  0  0  0
   -1.7288    0.6785    1.7171 H   0  0  0  0  0  0  0  0  0  0  0  0
   -3.2867   -0.1478    1.3283 H   0  0  0  0  0  0  0  0  0  0  0  0
   -2.2710    2.0918   -0.0394 H   0  0  0  0  0  0  0  0  0  0  0  0
   -3.4500    0.9143   -0.7371 H   0  0  0  0  0  0  0  0  0  0  0  0
   -1.9001    0.2420   -2.2568 H   0  0  0  0  0  0  0  0  0  0  0  0
   -0.6930    1.3849   -1.5904 H   0  0  0  0  0  0  0  0  0  0  0  0
  1  2  1  0
  2  3  2  0
  3  4  1  0
  4  5  2  0
  5  6  1  0
  6  7  2  0
  7  8  1  0
  8  9  1  0
  9 10  1  0
 10 11  1  0
 11 12  1  0
  7  2  1  0
 12  8  1  0
  3 13  1  0
  4 14  1  0
  5 15  1  0
  6 16  1  0
  8 17  1  0
  9 18  1  0
  9 19  1  0
 10 20  1  0
 10 21  1  0
 11 22  1  0
 11 23  1  0
 12 24  1  0
 12 25  1  0
M  RAD  1   1   3
M  END
$$$$
