
     RDKit          3D

 25 26  0  0  0  0  0  0  0  0999 V2000
    1.6590    2.2898    1.3667 N   0  0  0  0  0  1  0  0  0  0  0  0
    1.9102    1.1017    0.6192 C   0  0  0  0  0  0  0  0  0  0  0  0
    3.2346    0.7686    0.3090 C   0  0  0  0  0  0  0  0  0  0  0  0
    3.5195   -0.3815   -0.4287 C   0  0  0  0  0  0  0  0  0  0  0  0
    2.4823   -1.2059   -0.8643 C   0  0  0  0  0  0  0  0  0  0  0  0
    1.1574   -0.8843   -0.5611 C   0  0  0  0  0  0  0  0  0  0  0  0
    0.8499    0.2688    0.1904 C   0  0  0  0  0  0  0  0  0  0  0  0
   -0.6031    0.6086    0.5004 C   0  0  0  0  0  0  0  0  0  0  0  0
   -1.3500   -0.5408    1.1998 C   0  0  0  0  0  0  0  0  0  0  0  0
   -2.5164   -0.9134    0.2952 C   0  0  0  0  0  0  0  0  0  0  0  0
   -2.7635    0.3019   -0.5787 C   0  0  0  0  0  0  0  0  0  0  0  0
   -1.3999    0.9424   -0.7675 C   0  0  0  0  0  0  0  0  0  0  0  0
    4.0463    1.4049    0.6391 H   0  0  0  0  0  0  0  0  0  0  0  0
    4.5455   -0.6323   -0.6653 H   0  0  0  0  0  0  0  0  0  0  0  0
    2.7045   -2.0953   -1.4398 H   0  0  0  0  0  0  0  0  0  0  0  0
    0.3680   -1.5358   -0.9144 H   0  0  0  0  0  0  0  0  0  0  0  0
   -0.6619    1.4926    1.1724 H   0  0  0  0  0  0  0  0  0  0  0  0
   -1.7445   -0.1889    2.1790 H   0  0  0  0  0  0  0  0  0  0  0  0
   -0.7081   -1.4278    1.3942 H   0  0  0  0  0  0  0  0  0  0  0  0
   -2.2313   -1.7777   -0.3446 H   0  0  0  0  0  0  0  0  0  0  0  0
   -3.4213   -1.1776    0.8842 H   0  0  0  0  0  0  0  0  0  0  0  0
   -3.4390    1.0101   -0.0494 H   0  0  0  0  0  0  0  0  0  0  0  0
   -3.2186    0.0164   -1.5518 H   0  0  0  0  0  0  0  0  0  0  0  0
   -1.4944    2.0416   -0.9062 H   0  0  0  0  0  0  0  0  0  0  0  0
   -0.9251    0.5138   -1.6778 H   0  0  0  0  0  0  0  0  0  0  0  0
  1  2  1  0
  2  3  2  0
  3  4  1  0
  4  5  2  0
  5  6  1  0
  6  7  2  0
  7  8  1  0
  8  9  1  0
  9 10  1  0
 10 11  1  0
 11 12  1  0
  7  2  1  0
 12  8  1  0
  3 13  1  0
  4 14  1  0
  5 15  1  0
  6 16  1  0
  8 17  1  0
  9 18  1  0
  9 19  1  0
 10 20  1  0
 10 21  1  0
 11 22  1  0
 11 23  1  0
 12 24  1  0
 12 25  1  0
M  RAD  1   1   3
M  END
$$$$
