
     RDKit          3D

 25 26  0  0  0  0  0  0  0  0999 V2000
    1.6138    1.6316    2.1836 N   0  0  0  0  0  1  0  0  0  0  0  0
    1.8425    0.8086    1.0416 C   0  0  0  0  0  0  0  0  0  0  0  0
    3.1565    0.4348    0.7348 C   0  0  0  0  0  0  0  0  0  0  0  0
    3.4191   -0.3887   -0.3604 C   0  0  0  0  0  0  0  0  0  0  0  0
    2.3690   -0.8497   -1.1534 C   0  0  0  0  0  0  0  0  0  0  0  0
    1.0538   -0.4838   -0.8579 C   0  0  0  0  0  0  0  0  0  0  0  0
    0.7685    0.3649    0.2331 C   0  0  0  0  0  0  0  0  0  0  0  0
   -0.6742    0.7321    0.5762 C   0  0  0  0  0  0  0  0  0  0  0  0
   -1.4167   -0.4477    1.2022 C   0  0  0  0  0  0  0  0  0  0  0  0
   -2.2223   -1.0846    0.0832 C   0  0  0  0  0  0  0  0  0  0  0  0
   -2.4901    0.0176   -0.9338 C   0  0  0  0  0  0  0  0  0  0  0  0
   -1.5022    1.1484   -0.6484 C   0  0  0  0  0  0  0  0  0  0  0  0
    3.9774    0.7795    1.3514 H   0  0  0  0  0  0  0  0  0  0  0  0
    4.4372   -0.6750   -0.5907 H   0  0  0  0  0  0  0  0  0  0  0  0
    2.5735   -1.4950   -1.9979 H   0  0  0  0  0  0  0  0  0  0  0  0
    0.2612   -0.8624   -1.4882 H   0  0  0  0  0  0  0  0  0  0  0  0
   -0.6874    1.5799    1.2955 H   0  0  0  0  0  0  0  0  0  0  0  0
   -0.7316   -1.1847    1.6769 H   0  0  0  0  0  0  0  0  0  0  0  0
   -2.1166   -0.0701    1.9808 H   0  0  0  0  0  0  0  0  0  0  0  0
   -3.1715   -1.5155    0.4697 H   0  0  0  0  0  0  0  0  0  0  0  0
   -1.6290   -1.8984   -0.3877 H   0  0  0  0  0  0  0  0  0  0  0  0
   -3.5326    0.3886   -0.8205 H   0  0  0  0  0  0  0  0  0  0  0  0
   -2.3613   -0.3682   -1.9686 H   0  0  0  0  0  0  0  0  0  0  0  0
   -0.8692    1.3591   -1.5382 H   0  0  0  0  0  0  0  0  0  0  0  0
   -2.0678    2.0788   -0.4189 H   0  0  0  0  0  0  0  0  0  0  0  0
  1  2  1  0
  2  3  2  0
  3  4  1  0
  4  5  2  0
  5  6  1  0
  6  7  2  0
  7  8  1  0
  8  9  1  0
  9 10  1  0
 10 11  1  0
 11 12  1  0
  7  2  1  0
 12  8  1  0
  3 13  1  0
  4 14  1  0
  5 15  1  0
  6 16  1  0
  8 17  1  0
  9 18  1  0
  9 19  1  0
 10 20  1  0
 10 21  1  0
 11 22  1  0
 11 23  1  0
 12 24  1  0
 12 25  1  0
M  RAD  1   1   3
M  END
$$$$
