
     RDKit          3D

 25 26  0  0  0  0  0  0  0  0999 V2000
    1.5867   -2.7065    0.5005 N   0  0  0  0  0  1  0  0  0  0  0  0
    1.8274   -1.3377    0.1808 C   0  0  0  0  0  0  0  0  0  0  0  0
    3.1496   -0.8783    0.1456 C   0  0  0  0  0  0  0  0  0  0  0  0
    3.4250    0.4593   -0.1400 C   0  0  0  0  0  0  0  0  0  0  0  0
    2.3801    1.3489   -0.3864 C   0  0  0  0  0  0  0  0  0  0  0  0
    1.0569    0.9028   -0.3545 C   0  0  0  0  0  0  0  0  0  0  0  0
    0.7576   -0.4504   -0.0877 C   0  0  0  0  0  0  0  0  0  0  0  0
   -0.6922   -0.9267   -0.0158 C   0  0  0  0  0  0  0  0  0  0  0  0
   -1.3753   -0.4448    1.2634 C   0  0  0  0  0  0  0  0  0  0  0  0
   -2.1749    0.7880    0.8793 C   0  0  0  0  0  0  0  0  0  0  0  0
   -2.5051    0.6416   -0.6007 C   0  0  0  0  0  0  0  0  0  0  0  0
   -1.5583   -0.4120   -1.1749 C   0  0  0  0  0  0  0  0  0  0  0  0
    3.9671   -1.5597    0.3462 H   0  0  0  0  0  0  0  0  0  0  0  0
    4.4494    0.8080   -0.1639 H   0  0  0  0  0  0  0  0  0  0  0  0
    2.5950    2.3880   -0.6000 H   0  0  0  0  0  0  0  0  0  0  0  0
    0.2688    1.6183   -0.5440 H   0  0  0  0  0  0  0  0  0  0  0  0
   -0.7263   -2.0378   -0.0377 H   0  0  0  0  0  0  0  0  0  0  0  0
   -0.6527   -0.2198    2.0789 H   0  0  0  0  0  0  0  0  0  0  0  0
   -2.0755   -1.2308    1.6245 H   0  0  0  0  0  0  0  0  0  0  0  0
   -3.0989    0.8716    1.4919 H   0  0  0  0  0  0  0  0  0  0  0  0
   -1.5581    1.6988    1.0413 H   0  0  0  0  0  0  0  0  0  0  0  0
   -3.5595    0.3074   -0.7194 H   0  0  0  0  0  0  0  0  0  0  0  0
   -2.3798    1.6138   -1.1254 H   0  0  0  0  0  0  0  0  0  0  0  0
   -2.1565   -1.2506   -1.5960 H   0  0  0  0  0  0  0  0  0  0  0  0
   -0.9506    0.0084   -2.0060 H   0  0  0  0  0  0  0  0  0  0  0  0
  1  2  1  0
  2  3  2  0
  3  4  1  0
  4  5  2  0
  5  6  1  0
  6  7  2  0
  7  8  1  0
  8  9  1  0
  9 10  1  0
 10 11  1  0
 11 12  1  0
  7  2  1  0
 12  8  1  0
  3 13  1  0
  4 14  1  0
  5 15  1  0
  6 16  1  0
  8 17  1  0
  9 18  1  0
  9 19  1  0
 10 20  1  0
 10 21  1  0
 11 22  1  0
 11 23  1  0
 12 24  1  0
 12 25  1  0
M  RAD  1   1   3
M  END
$$$$
