
     RDKit          3D

 25 26  0  0  0  0  0  0  0  0999 V2000
    1.8943   -2.5014    0.0678 N   0  0  0  0  0  1  0  0  0  0  0  0
    2.0168   -1.0855   -0.0493 C   0  0  0  0  0  0  0  0  0  0  0  0
    3.2979   -0.5215   -0.0907 C   0  0  0  0  0  0  0  0  0  0  0  0
    3.4580    0.8611   -0.1958 C   0  0  0  0  0  0  0  0  0  0  0  0
    2.3384    1.6905   -0.2574 C   0  0  0  0  0  0  0  0  0  0  0  0
    1.0555    1.1397   -0.2172 C   0  0  0  0  0  0  0  0  0  0  0  0
    0.8733   -0.2554   -0.1199 C   0  0  0  0  0  0  0  0  0  0  0  0
   -0.5350   -0.8357   -0.0653 C   0  0  0  0  0  0  0  0  0  0  0  0
   -1.4097   -0.3955   -1.2524 C   0  0  0  0  0  0  0  0  0  0  0  0
   -2.6043    0.3399   -0.6611 C   0  0  0  0  0  0  0  0  0  0  0  0
   -2.7089   -0.1344    0.7762 C   0  0  0  0  0  0  0  0  0  0  0  0
   -1.2813   -0.4179    1.2084 C   0  0  0  0  0  0  0  0  0  0  0  0
    4.1732   -1.1570   -0.0389 H   0  0  0  0  0  0  0  0  0  0  0  0
    4.4513    1.2900   -0.2264 H   0  0  0  0  0  0  0  0  0  0  0  0
    2.4641    2.7628   -0.3347 H   0  0  0  0  0  0  0  0  0  0  0  0
    0.2009    1.8032   -0.2608 H   0  0  0  0  0  0  0  0  0  0  0  0
   -0.4995   -1.9470   -0.0804 H   0  0  0  0  0  0  0  0  0  0  0  0
   -0.8717    0.2535   -1.9776 H   0  0  0  0  0  0  0  0  0  0  0  0
   -1.7690   -1.2924   -1.8045 H   0  0  0  0  0  0  0  0  0  0  0  0
   -3.5368    0.1240   -1.2262 H   0  0  0  0  0  0  0  0  0  0  0  0
   -2.4129    1.4357   -0.6764 H   0  0  0  0  0  0  0  0  0  0  0  0
   -3.3049   -1.0731    0.8162 H   0  0  0  0  0  0  0  0  0  0  0  0
   -3.1865    0.6330    1.4231 H   0  0  0  0  0  0  0  0  0  0  0  0
   -0.8512    0.5062    1.6542 H   0  0  0  0  0  0  0  0  0  0  0  0
   -1.2520   -1.2229    1.9749 H   0  0  0  0  0  0  0  0  0  0  0  0
  1  2  1  0
  2  3  2  0
  3  4  1  0
  4  5  2  0
  5  6  1  0
  6  7  2  0
  7  8  1  0
  8  9  1  0
  9 10  1  0
 10 11  1  0
 11 12  1  0
  7  2  1  0
 12  8  1  0
  3 13  1  0
  4 14  1  0
  5 15  1  0
  6 16  1  0
  8 17  1  0
  9 18  1  0
  9 19  1  0
 10 20  1  0
 10 21  1  0
 11 22  1  0
 11 23  1  0
 12 24  1  0
 12 25  1  0
M  RAD  1   1   3
M  END
$$$$
