
     RDKit          3D

 25 26  0  0  0  0  0  0  0  0999 V2000
    1.0572   -2.0376   -2.1964 N   0  0  0  0  0  1  0  0  0  0  0  0
    1.5345   -1.2691   -1.0939 C   0  0  0  0  0  0  0  0  0  0  0  0
    2.8559   -1.4525   -0.6687 C   0  0  0  0  0  0  0  0  0  0  0  0
    3.3528   -0.7367    0.4209 C   0  0  0  0  0  0  0  0  0  0  0  0
    2.5304    0.1633    1.0974 C   0  0  0  0  0  0  0  0  0  0  0  0
    1.2105    0.3553    0.6828 C   0  0  0  0  0  0  0  0  0  0  0  0
    0.6943   -0.3435   -0.4295 C   0  0  0  0  0  0  0  0  0  0  0  0
   -0.7609   -0.1595   -0.8566 C   0  0  0  0  0  0  0  0  0  0  0  0
   -1.7191   -0.8466    0.1155 C   0  0  0  0  0  0  0  0  0  0  0  0
   -2.2295    0.2388    1.0472 C   0  0  0  0  0  0  0  0  0  0  0  0
   -2.1403    1.5471    0.2718 C   0  0  0  0  0  0  0  0  0  0  0  0
   -1.1970    1.3122   -0.9077 C   0  0  0  0  0  0  0  0  0  0  0  0
    3.4987   -2.1571   -1.1815 H   0  0  0  0  0  0  0  0  0  0  0  0
    4.3748   -0.8847    0.7452 H   0  0  0  0  0  0  0  0  0  0  0  0
    2.9150    0.7119    1.9474 H   0  0  0  0  0  0  0  0  0  0  0  0
    0.5963    1.0557    1.2316 H   0  0  0  0  0  0  0  0  0  0  0  0
   -0.9148   -0.5916   -1.8694 H   0  0  0  0  0  0  0  0  0  0  0  0
   -2.5785   -1.2682   -0.4521 H   0  0  0  0  0  0  0  0  0  0  0  0
   -1.2370   -1.6729    0.6835 H   0  0  0  0  0  0  0  0  0  0  0  0
   -3.2735    0.0311    1.3683 H   0  0  0  0  0  0  0  0  0  0  0  0
   -1.5838    0.2895    1.9508 H   0  0  0  0  0  0  0  0  0  0  0  0
   -1.7603    2.3619    0.9259 H   0  0  0  0  0  0  0  0  0  0  0  0
   -3.1486    1.8325   -0.1014 H   0  0  0  0  0  0  0  0  0  0  0  0
   -0.3341    2.0129   -0.8740 H   0  0  0  0  0  0  0  0  0  0  0  0
   -1.7431    1.5079   -1.8573 H   0  0  0  0  0  0  0  0  0  0  0  0
  1  2  1  0
  2  3  2  0
  3  4  1  0
  4  5  2  0
  5  6  1  0
  6  7  2  0
  7  8  1  0
  8  9  1  0
  9 10  1  0
 10 11  1  0
 11 12  1  0
  7  2  1  0
 12  8  1  0
  3 13  1  0
  4 14  1  0
  5 15  1  0
  6 16  1  0
  8 17  1  0
  9 18  1  0
  9 19  1  0
 10 20  1  0
 10 21  1  0
 11 22  1  0
 11 23  1  0
 12 24  1  0
 12 25  1  0
M  RAD  1   1   3
M  END
$$$$
