
     RDKit          3D

 25 26  0  0  0  0  0  0  0  0999 V2000
    1.5043    2.1510   -1.7899 N   0  0  0  0  0  1  0  0  0  0  0  0
    1.7886    1.0667   -0.9082 C   0  0  0  0  0  0  0  0  0  0  0  0
    3.1151    0.6390   -0.7747 C   0  0  0  0  0  0  0  0  0  0  0  0
    3.4307   -0.4335    0.0599 C   0  0  0  0  0  0  0  0  0  0  0  0
    2.4214   -1.0904    0.7625 C   0  0  0  0  0  0  0  0  0  0  0  0
    1.0943   -0.6732    0.6381 C   0  0  0  0  0  0  0  0  0  0  0  0
    0.7562    0.4224   -0.1849 C   0  0  0  0  0  0  0  0  0  0  0  0
   -0.7008    0.8518   -0.3484 C   0  0  0  0  0  0  0  0  0  0  0  0
   -1.4801   -0.1366   -1.2148 C   0  0  0  0  0  0  0  0  0  0  0  0
   -2.2292   -1.0442   -0.2546 C   0  0  0  0  0  0  0  0  0  0  0  0
   -2.4386   -0.2393    1.0217 C   0  0  0  0  0  0  0  0  0  0  0  0
   -1.4619    0.9357    0.9828 C   0  0  0  0  0  0  0  0  0  0  0  0
    3.9043    1.1365   -1.3248 H   0  0  0  0  0  0  0  0  0  0  0  0
    4.4582   -0.7599    0.1569 H   0  0  0  0  0  0  0  0  0  0  0  0
    2.6668   -1.9274    1.4034 H   0  0  0  0  0  0  0  0  0  0  0  0
    0.3339   -1.2067    1.1914 H   0  0  0  0  0  0  0  0  0  0  0  0
   -0.7476    1.8545   -0.8267 H   0  0  0  0  0  0  0  0  0  0  0  0
   -2.2180    0.4203   -1.8345 H   0  0  0  0  0  0  0  0  0  0  0  0
   -0.8240   -0.7225   -1.8960 H   0  0  0  0  0  0  0  0  0  0  0  0
   -1.6158   -1.9457   -0.0373 H   0  0  0  0  0  0  0  0  0  0  0  0
   -3.1992   -1.3711   -0.6885 H   0  0  0  0  0  0  0  0  0  0  0  0
   -2.2578   -0.8743    1.9163 H   0  0  0  0  0  0  0  0  0  0  0  0
   -3.4840    0.1391    1.0603 H   0  0  0  0  0  0  0  0  0  0  0  0
   -2.0345    1.8889    1.0271 H   0  0  0  0  0  0  0  0  0  0  0  0
   -0.7824    0.9189    1.8630 H   0  0  0  0  0  0  0  0  0  0  0  0
  1  2  1  0
  2  3  2  0
  3  4  1  0
  4  5  2  0
  5  6  1  0
  6  7  2  0
  7  8  1  0
  8  9  1  0
  9 10  1  0
 10 11  1  0
 11 12  1  0
  7  2  1  0
 12  8  1  0
  3 13  1  0
  4 14  1  0
  5 15  1  0
  6 16  1  0
  8 17  1  0
  9 18  1  0
  9 19  1  0
 10 20  1  0
 10 21  1  0
 11 22  1  0
 11 23  1  0
 12 24  1  0
 12 25  1  0
M  RAD  1   1   3
M  END
$$$$
