
     RDKit          3D

 24 24  0  0  0  0  0  0  0  0999 V2000
    2.9537    0.8185    0.3881 C   0  0  0  0  0  0  0  0  0  0  0  0
    1.9721    0.4340   -0.7185 C   0  0  0  0  0  0  0  0  0  0  0  0
    1.4713   -1.0150   -0.5903 C   0  0  0  0  0  0  0  0  0  0  0  0
    0.4777   -1.2338    0.5641 C   0  0  0  0  0  0  0  0  0  0  0  0
   -0.8348   -0.5183    0.3320 C   0  0  0  0  0  0  0  0  0  0  0  0
   -1.7475   -1.0467   -0.5984 C   0  0  0  0  0  0  0  0  0  0  0  0
   -2.9602   -0.3996   -0.8491 C   0  0  0  0  0  0  0  0  0  0  0  0
   -3.2749    0.7821   -0.1763 C   0  0  0  0  0  0  0  0  0  0  0  0
   -2.3778    1.3199    0.7490 C   0  0  0  0  0  0  0  0  0  0  0  0
   -1.1599    0.6791    1.0077 C   0  0  0  0  0  0  0  0  0  0  0  0
   -0.2649    1.2537    1.9569 N   0  0  0  0  0  1  0  0  0  0  0  0
    3.3430    1.8405    0.1964 H   0  0  0  0  0  0  0  0  0  0  0  0
    3.8113    0.1129    0.4080 H   0  0  0  0  0  0  0  0  0  0  0  0
    2.4556    0.8187    1.3786 H   0  0  0  0  0  0  0  0  0  0  0  0
    2.4963    0.5363   -1.6934 H   0  0  0  0  0  0  0  0  0  0  0  0
    1.1192    1.1450   -0.7282 H   0  0  0  0  0  0  0  0  0  0  0  0
    2.3409   -1.6939   -0.4517 H   0  0  0  0  0  0  0  0  0  0  0  0
    0.9864   -1.3095   -1.5466 H   0  0  0  0  0  0  0  0  0  0  0  0
    0.9367   -0.9439    1.5314 H   0  0  0  0  0  0  0  0  0  0  0  0
    0.2742   -2.3239    0.6447 H   0  0  0  0  0  0  0  0  0  0  0  0
   -1.5179   -1.9614   -1.1311 H   0  0  0  0  0  0  0  0  0  0  0  0
   -3.6561   -0.8145   -1.5668 H   0  0  0  0  0  0  0  0  0  0  0  0
   -4.2146    1.2822   -0.3724 H   0  0  0  0  0  0  0  0  0  0  0  0
   -2.6297    2.2375    1.2658 H   0  0  0  0  0  0  0  0  0  0  0  0
  1  2  1  0
  2  3  1  0
  3  4  1  0
  4  5  1  0
  5  6  2  0
  6  7  1  0
  7  8  2  0
  8  9  1  0
  9 10  2  0
 10 11  1  0
 10  5  1  0
  1 12  1  0
  1 13  1  0
  1 14  1  0
  2 15  1  0
  2 16  1  0
  3 17  1  0
  3 18  1  0
  4 19  1  0
  4 20  1  0
  6 21  1  0
  7 22  1  0
  8 23  1  0
  9 24  1  0
M  RAD  1  11   3
M  END
$$$$
