
     RDKit          3D

 24 24  0  0  0  0  0  0  0  0999 V2000
    3.0698    0.3353    0.0828 C   0  0  0  0  0  0  0  0  0  0  0  0
    1.9700   -0.5999    0.5846 C   0  0  0  0  0  0  0  0  0  0  0  0
    1.2306   -1.3140   -0.5601 C   0  0  0  0  0  0  0  0  0  0  0  0
    0.2866   -0.4003   -1.3613 C   0  0  0  0  0  0  0  0  0  0  0  0
   -0.8911    0.0693   -0.5361 C   0  0  0  0  0  0  0  0  0  0  0  0
   -1.9379   -0.8294   -0.2633 C   0  0  0  0  0  0  0  0  0  0  0  0
   -3.0307   -0.4320    0.5113 C   0  0  0  0  0  0  0  0  0  0  0  0
   -3.0905    0.8649    1.0237 C   0  0  0  0  0  0  0  0  0  0  0  0
   -2.0577    1.7680    0.7628 C   0  0  0  0  0  0  0  0  0  0  0  0
   -0.9582    1.3798   -0.0126 C   0  0  0  0  0  0  0  0  0  0  0  0
    0.0805    2.3243   -0.2602 N   0  0  0  0  0  1  0  0  0  0  0  0
    3.7893   -0.2200   -0.5557 H   0  0  0  0  0  0  0  0  0  0  0  0
    3.6205    0.7552    0.9508 H   0  0  0  0  0  0  0  0  0  0  0  0
    2.6412    1.1787   -0.4951 H   0  0  0  0  0  0  0  0  0  0  0  0
    1.2566   -0.0342    1.2204 H   0  0  0  0  0  0  0  0  0  0  0  0
    2.4432   -1.3723    1.2288 H   0  0  0  0  0  0  0  0  0  0  0  0
    0.6436   -2.1564   -0.1333 H   0  0  0  0  0  0  0  0  0  0  0  0
    1.9738   -1.7630   -1.2545 H   0  0  0  0  0  0  0  0  0  0  0  0
    0.8479    0.4519   -1.7962 H   0  0  0  0  0  0  0  0  0  0  0  0
   -0.1005   -0.9773   -2.2294 H   0  0  0  0  0  0  0  0  0  0  0  0
   -1.9060   -1.8402   -0.6510 H   0  0  0  0  0  0  0  0  0  0  0  0
   -3.8314   -1.1310    0.7154 H   0  0  0  0  0  0  0  0  0  0  0  0
   -3.9377    1.1707    1.6241 H   0  0  0  0  0  0  0  0  0  0  0  0
   -2.1119    2.7720    1.1650 H   0  0  0  0  0  0  0  0  0  0  0  0
  1  2  1  0
  2  3  1  0
  3  4  1  0
  4  5  1  0
  5  6  2  0
  6  7  1  0
  7  8  2  0
  8  9  1  0
  9 10  2  0
 10 11  1  0
 10  5  1  0
  1 12  1  0
  1 13  1  0
  1 14  1  0
  2 15  1  0
  2 16  1  0
  3 17  1  0
  3 18  1  0
  4 19  1  0
  4 20  1  0
  6 21  1  0
  7 22  1  0
  8 23  1  0
  9 24  1  0
M  RAD  1  11   3
M  END
$$$$
