
     RDKit          3D

 24 24  0  0  0  0  0  0  0  0999 V2000
    3.6369   -0.1911   -0.8612 C   0  0  0  0  0  0  0  0  0  0  0  0
    2.7457   -0.2560    0.3757 C   0  0  0  0  0  0  0  0  0  0  0  0
    1.2688   -0.0841    0.0035 C   0  0  0  0  0  0  0  0  0  0  0  0
    0.3764   -0.1494    1.2477 C   0  0  0  0  0  0  0  0  0  0  0  0
   -1.0749    0.0225    0.8707 C   0  0  0  0  0  0  0  0  0  0  0  0
   -1.6400    1.3099    0.8632 C   0  0  0  0  0  0  0  0  0  0  0  0
   -2.9735    1.4955    0.4886 C   0  0  0  0  0  0  0  0  0  0  0  0
   -3.7528    0.4012    0.1083 C   0  0  0  0  0  0  0  0  0  0  0  0
   -3.1994   -0.8813    0.0970 C   0  0  0  0  0  0  0  0  0  0  0  0
   -1.8642   -1.0773    0.4705 C   0  0  0  0  0  0  0  0  0  0  0  0
   -1.3190   -2.3945    0.4355 N   0  0  0  0  0  1  0  0  0  0  0  0
    3.5256    0.7922   -1.3659 H   0  0  0  0  0  0  0  0  0  0  0  0
    4.6985   -0.3183   -0.5616 H   0  0  0  0  0  0  0  0  0  0  0  0
    3.3692   -1.0013   -1.5726 H   0  0  0  0  0  0  0  0  0  0  0  0
    2.8947   -1.2383    0.8749 H   0  0  0  0  0  0  0  0  0  0  0  0
    3.0507    0.5476    1.0810 H   0  0  0  0  0  0  0  0  0  0  0  0
    0.9724   -0.8883   -0.7059 H   0  0  0  0  0  0  0  0  0  0  0  0
    1.1273    0.8988   -0.4984 H   0  0  0  0  0  0  0  0  0  0  0  0
    0.5231   -1.1204    1.7689 H   0  0  0  0  0  0  0  0  0  0  0  0
    0.6768    0.6482    1.9627 H   0  0  0  0  0  0  0  0  0  0  0  0
   -1.0468    2.1707    1.1465 H   0  0  0  0  0  0  0  0  0  0  0  0
   -3.4020    2.4895    0.4899 H   0  0  0  0  0  0  0  0  0  0  0  0
   -4.7850    0.5475   -0.1827 H   0  0  0  0  0  0  0  0  0  0  0  0
   -3.8085   -1.7236   -0.2065 H   0  0  0  0  0  0  0  0  0  0  0  0
  1  2  1  0
  2  3  1  0
  3  4  1  0
  4  5  1  0
  5  6  2  0
  6  7  1  0
  7  8  2  0
  8  9  1  0
  9 10  2  0
 10 11  1  0
 10  5  1  0
  1 12  1  0
  1 13  1  0
  1 14  1  0
  2 15  1  0
  2 16  1  0
  3 17  1  0
  3 18  1  0
  4 19  1  0
  4 20  1  0
  6 21  1  0
  7 22  1  0
  8 23  1  0
  9 24  1  0
M  RAD  1  11   3
M  END
$$$$
