
     RDKit          3D

 24 24  0  0  0  0  0  0  0  0999 V2000
    1.8795    1.3586    0.2721 C   0  0  0  0  0  0  0  0  0  0  0  0
    2.3361   -0.0089   -0.2368 C   0  0  0  0  0  0  0  0  0  0  0  0
    1.4605   -0.5377   -1.3899 C   0  0  0  0  0  0  0  0  0  0  0  0
    0.3153   -1.4548   -0.9271 C   0  0  0  0  0  0  0  0  0  0  0  0
   -0.7524   -0.7121   -0.1578 C   0  0  0  0  0  0  0  0  0  0  0  0
   -1.6297    0.1397   -0.8522 C   0  0  0  0  0  0  0  0  0  0  0  0
   -2.6155    0.8540   -0.1668 C   0  0  0  0  0  0  0  0  0  0  0  0
   -2.7371    0.7265    1.2179 C   0  0  0  0  0  0  0  0  0  0  0  0
   -1.8732   -0.1160    1.9210 C   0  0  0  0  0  0  0  0  0  0  0  0
   -0.8816   -0.8363    1.2438 C   0  0  0  0  0  0  0  0  0  0  0  0
   -0.0076   -1.6794    1.9909 N   0  0  0  0  0  1  0  0  0  0  0  0
    2.5723    1.7062    1.0670 H   0  0  0  0  0  0  0  0  0  0  0  0
    1.8914    2.1014   -0.5536 H   0  0  0  0  0  0  0  0  0  0  0  0
    0.8594    1.3077    0.7004 H   0  0  0  0  0  0  0  0  0  0  0  0
    2.3628   -0.7333    0.6055 H   0  0  0  0  0  0  0  0  0  0  0  0
    3.3790    0.1015   -0.6063 H   0  0  0  0  0  0  0  0  0  0  0  0
    1.0626    0.2992   -2.0048 H   0  0  0  0  0  0  0  0  0  0  0  0
    2.1101   -1.1395   -2.0626 H   0  0  0  0  0  0  0  0  0  0  0  0
    0.7288   -2.3022   -0.3399 H   0  0  0  0  0  0  0  0  0  0  0  0
   -0.1538   -1.9093   -1.8270 H   0  0  0  0  0  0  0  0  0  0  0  0
   -1.5474    0.2519   -1.9263 H   0  0  0  0  0  0  0  0  0  0  0  0
   -3.2853    1.5081   -0.7100 H   0  0  0  0  0  0  0  0  0  0  0  0
   -3.5009    1.2815    1.7470 H   0  0  0  0  0  0  0  0  0  0  0  0
   -1.9731   -0.2070    2.9954 H   0  0  0  0  0  0  0  0  0  0  0  0
  1  2  1  0
  2  3  1  0
  3  4  1  0
  4  5  1  0
  5  6  2  0
  6  7  1  0
  7  8  2  0
  8  9  1  0
  9 10  2  0
 10 11  1  0
 10  5  1  0
  1 12  1  0
  1 13  1  0
  1 14  1  0
  2 15  1  0
  2 16  1  0
  3 17  1  0
  3 18  1  0
  4 19  1  0
  4 20  1  0
  6 21  1  0
  7 22  1  0
  8 23  1  0
  9 24  1  0
M  RAD  1  11   3
M  END
$$$$
