
     RDKit          3D

 24 24  0  0  0  0  0  0  0  0999 V2000
    3.7455    0.6638    0.0934 C   0  0  0  0  0  0  0  0  0  0  0  0
    2.7178   -0.4592   -0.0111 C   0  0  0  0  0  0  0  0  0  0  0  0
    1.2919    0.0993   -0.0738 C   0  0  0  0  0  0  0  0  0  0  0  0
    0.2621   -1.0309   -0.1785 C   0  0  0  0  0  0  0  0  0  0  0  0
   -1.1381   -0.4706   -0.2378 C   0  0  0  0  0  0  0  0  0  0  0  0
   -1.8607   -0.2862    0.9541 C   0  0  0  0  0  0  0  0  0  0  0  0
   -3.1471    0.2589    0.9250 C   0  0  0  0  0  0  0  0  0  0  0  0
   -3.7211    0.6345   -0.2911 C   0  0  0  0  0  0  0  0  0  0  0  0
   -3.0082    0.4705   -1.4812 C   0  0  0  0  0  0  0  0  0  0  0  0
   -1.7186   -0.0746   -1.4621 C   0  0  0  0  0  0  0  0  0  0  0  0
   -1.0062   -0.2171   -2.6892 N   0  0  0  0  0  1  0  0  0  0  0  0
    3.6802    1.3303   -0.7929 H   0  0  0  0  0  0  0  0  0  0  0  0
    3.5731    1.2601    1.0147 H   0  0  0  0  0  0  0  0  0  0  0  0
    4.7668    0.2302    0.1371 H   0  0  0  0  0  0  0  0  0  0  0  0
    2.8214   -1.1247    0.8736 H   0  0  0  0  0  0  0  0  0  0  0  0
    2.9278   -1.0546   -0.9264 H   0  0  0  0  0  0  0  0  0  0  0  0
    1.0894    0.6965    0.8429 H   0  0  0  0  0  0  0  0  0  0  0  0
    1.1973    0.7677   -0.9581 H   0  0  0  0  0  0  0  0  0  0  0  0
    0.3607   -1.7059    0.7004 H   0  0  0  0  0  0  0  0  0  0  0  0
    0.4655   -1.6468   -1.0814 H   0  0  0  0  0  0  0  0  0  0  0  0
   -1.4267   -0.5636    1.9069 H   0  0  0  0  0  0  0  0  0  0  0  0
   -3.6982    0.3933    1.8468 H   0  0  0  0  0  0  0  0  0  0  0  0
   -4.7171    1.0577   -0.3112 H   0  0  0  0  0  0  0  0  0  0  0  0
   -3.4577    0.7714   -2.4193 H   0  0  0  0  0  0  0  0  0  0  0  0
  1  2  1  0
  2  3  1  0
  3  4  1  0
  4  5  1  0
  5  6  2  0
  6  7  1  0
  7  8  2  0
  8  9  1  0
  9 10  2  0
 10 11  1  0
 10  5  1  0
  1 12  1  0
  1 13  1  0
  1 14  1  0
  2 15  1  0
  2 16  1  0
  3 17  1  0
  3 18  1  0
  4 19  1  0
  4 20  1  0
  6 21  1  0
  7 22  1  0
  8 23  1  0
  9 24  1  0
M  RAD  1  11   3
M  END
$$$$
