
     RDKit          3D

 24 24  0  0  0  0  0  0  0  0999 V2000
   -1.8066    0.8476   -1.3672 C   0  0  0  0  0  0  0  0  0  0  0  0
   -2.2900   -0.3455   -0.5424 C   0  0  0  0  0  0  0  0  0  0  0  0
   -1.3254   -1.5459   -0.6103 C   0  0  0  0  0  0  0  0  0  0  0  0
   -0.3014   -1.5828    0.5373 C   0  0  0  0  0  0  0  0  0  0  0  0
    0.7179   -0.4711    0.4457 C   0  0  0  0  0  0  0  0  0  0  0  0
    1.7213   -0.5411   -0.5371 C   0  0  0  0  0  0  0  0  0  0  0  0
    2.6672    0.4799   -0.6589 C   0  0  0  0  0  0  0  0  0  0  0  0
    2.6227    1.5810    0.1978 C   0  0  0  0  0  0  0  0  0  0  0  0
    1.6323    1.6641    1.1789 C   0  0  0  0  0  0  0  0  0  0  0  0
    0.6794    0.6465    1.3094 C   0  0  0  0  0  0  0  0  0  0  0  0
   -0.3261    0.7656    2.3133 N   0  0  0  0  0  1  0  0  0  0  0  0
   -2.5612    1.6605   -1.3165 H   0  0  0  0  0  0  0  0  0  0  0  0
   -1.6771    0.5545   -2.4307 H   0  0  0  0  0  0  0  0  0  0  0  0
   -0.8470    1.2417   -0.9794 H   0  0  0  0  0  0  0  0  0  0  0  0
   -3.2750   -0.6596   -0.9516 H   0  0  0  0  0  0  0  0  0  0  0  0
   -2.4585   -0.0309    0.5100 H   0  0  0  0  0  0  0  0  0  0  0  0
   -1.9321   -2.4750   -0.5374 H   0  0  0  0  0  0  0  0  0  0  0  0
   -0.8073   -1.5863   -1.5936 H   0  0  0  0  0  0  0  0  0  0  0  0
   -0.8326   -1.5723    1.5128 H   0  0  0  0  0  0  0  0  0  0  0  0
    0.2362   -2.5552    0.4948 H   0  0  0  0  0  0  0  0  0  0  0  0
    1.7685   -1.3874   -1.2113 H   0  0  0  0  0  0  0  0  0  0  0  0
    3.4350    0.4175   -1.4192 H   0  0  0  0  0  0  0  0  0  0  0  0
    3.3559    2.3713    0.1010 H   0  0  0  0  0  0  0  0  0  0  0  0
    1.6039    2.5231    1.8376 H   0  0  0  0  0  0  0  0  0  0  0  0
  1  2  1  0
  2  3  1  0
  3  4  1  0
  4  5  1  0
  5  6  2  0
  6  7  1  0
  7  8  2  0
  8  9  1  0
  9 10  2  0
 10 11  1  0
 10  5  1  0
  1 12  1  0
  1 13  1  0
  1 14  1  0
  2 15  1  0
  2 16  1  0
  3 17  1  0
  3 18  1  0
  4 19  1  0
  4 20  1  0
  6 21  1  0
  7 22  1  0
  8 23  1  0
  9 24  1  0
M  RAD  1  11   3
M  END
$$$$
