
     RDKit          3D

 24 24  0  0  0  0  0  0  0  0999 V2000
   -1.8713    1.3667    0.3401 C   0  0  0  0  0  0  0  0  0  0  0  0
   -2.3190   -0.0358   -0.0724 C   0  0  0  0  0  0  0  0  0  0  0  0
   -1.5404   -0.5718   -1.2906 C   0  0  0  0  0  0  0  0  0  0  0  0
   -0.3470   -1.4671   -0.9147 C   0  0  0  0  0  0  0  0  0  0  0  0
    0.7518   -0.7098   -0.2075 C   0  0  0  0  0  0  0  0  0  0  0  0
    0.8855   -0.8212    1.1882 C   0  0  0  0  0  0  0  0  0  0  0  0
    1.8803   -0.1090    1.8631 C   0  0  0  0  0  0  0  0  0  0  0  0
    2.7512    0.7203    1.1539 C   0  0  0  0  0  0  0  0  0  0  0  0
    2.6302    0.8391   -0.2325 C   0  0  0  0  0  0  0  0  0  0  0  0
    1.6365    0.1299   -0.9178 C   0  0  0  0  0  0  0  0  0  0  0  0
    1.5363    0.2665   -2.3336 N   0  0  0  0  0  1  0  0  0  0  0  0
   -0.8046    1.3759    0.6390 H   0  0  0  0  0  0  0  0  0  0  0  0
   -2.0198    2.0801   -0.4981 H   0  0  0  0  0  0  0  0  0  0  0  0
   -2.4786    1.7087    1.2044 H   0  0  0  0  0  0  0  0  0  0  0  0
   -2.2281   -0.7274    0.7931 H   0  0  0  0  0  0  0  0  0  0  0  0
   -3.3979    0.0188   -0.3355 H   0  0  0  0  0  0  0  0  0  0  0  0
   -2.2367   -1.1919   -1.8964 H   0  0  0  0  0  0  0  0  0  0  0  0
   -1.2087    0.2602   -1.9492 H   0  0  0  0  0  0  0  0  0  0  0  0
   -0.7035   -2.3153   -0.2896 H   0  0  0  0  0  0  0  0  0  0  0  0
    0.0651   -1.9213   -1.8417 H   0  0  0  0  0  0  0  0  0  0  0  0
    0.2137   -1.4531    1.7559 H   0  0  0  0  0  0  0  0  0  0  0  0
    1.9743   -0.1982    2.9377 H   0  0  0  0  0  0  0  0  0  0  0  0
    3.5205    1.2716    1.6790 H   0  0  0  0  0  0  0  0  0  0  0  0
    3.3102    1.4840   -0.7750 H   0  0  0  0  0  0  0  0  0  0  0  0
  1  2  1  0
  2  3  1  0
  3  4  1  0
  4  5  1  0
  5  6  2  0
  6  7  1  0
  7  8  2  0
  8  9  1  0
  9 10  2  0
 10 11  1  0
 10  5  1  0
  1 12  1  0
  1 13  1  0
  1 14  1  0
  2 15  1  0
  2 16  1  0
  3 17  1  0
  3 18  1  0
  4 19  1  0
  4 20  1  0
  6 21  1  0
  7 22  1  0
  8 23  1  0
  9 24  1  0
M  RAD  1  11   3
M  END
$$$$
