
     RDKit          3D

 24 24  0  0  0  0  0  0  0  0999 V2000
    1.9859    0.1429    1.2198 C   0  0  0  0  0  0  0  0  0  0  0  0
    2.3217   -0.2809   -0.2103 C   0  0  0  0  0  0  0  0  0  0  0  0
    1.3794   -1.3783   -0.7428 C   0  0  0  0  0  0  0  0  0  0  0  0
    0.1778   -0.8322   -1.5333 C   0  0  0  0  0  0  0  0  0  0  0  0
   -0.8093   -0.0946   -0.6588 C   0  0  0  0  0  0  0  0  0  0  0  0
   -1.6344   -0.8280    0.2123 C   0  0  0  0  0  0  0  0  0  0  0  0
   -2.5442   -0.1736    1.0465 C   0  0  0  0  0  0  0  0  0  0  0  0
   -2.6411    1.2186    1.0207 C   0  0  0  0  0  0  0  0  0  0  0  0
   -1.8285    1.9604    0.1605 C   0  0  0  0  0  0  0  0  0  0  0  0
   -0.9133    1.3145   -0.6795 C   0  0  0  0  0  0  0  0  0  0  0  0
   -0.0896    2.1000   -1.5383 N   0  0  0  0  0  1  0  0  0  0  0  0
    0.9759    0.5933    1.2786 H   0  0  0  0  0  0  0  0  0  0  0  0
    2.0355   -0.7314    1.9031 H   0  0  0  0  0  0  0  0  0  0  0  0
    2.7232    0.8988    1.5629 H   0  0  0  0  0  0  0  0  0  0  0  0
    2.3126    0.6080   -0.8773 H   0  0  0  0  0  0  0  0  0  0  0  0
    3.3606   -0.6772   -0.2079 H   0  0  0  0  0  0  0  0  0  0  0  0
    1.0329   -2.0407    0.0807 H   0  0  0  0  0  0  0  0  0  0  0  0
    1.9632   -2.0211   -1.4375 H   0  0  0  0  0  0  0  0  0  0  0  0
   -0.3474   -1.6900   -2.0075 H   0  0  0  0  0  0  0  0  0  0  0  0
    0.5383   -0.1971   -2.3703 H   0  0  0  0  0  0  0  0  0  0  0  0
   -1.5701   -1.9086    0.2464 H   0  0  0  0  0  0  0  0  0  0  0  0
   -3.1741   -0.7468    1.7144 H   0  0  0  0  0  0  0  0  0  0  0  0
   -3.3460    1.7236    1.6685 H   0  0  0  0  0  0  0  0  0  0  0  0
   -1.9088    3.0402    0.1489 H   0  0  0  0  0  0  0  0  0  0  0  0
  1  2  1  0
  2  3  1  0
  3  4  1  0
  4  5  1  0
  5  6  2  0
  6  7  1  0
  7  8  2  0
  8  9  1  0
  9 10  2  0
 10 11  1  0
 10  5  1  0
  1 12  1  0
  1 13  1  0
  1 14  1  0
  2 15  1  0
  2 16  1  0
  3 17  1  0
  3 18  1  0
  4 19  1  0
  4 20  1  0
  6 21  1  0
  7 22  1  0
  8 23  1  0
  9 24  1  0
M  RAD  1  11   3
M  END
$$$$
