
     RDKit          3D

 24 24  0  0  0  0  0  0  0  0999 V2000
   -1.9927    0.5876   -1.0812 C   0  0  0  0  0  0  0  0  0  0  0  0
   -2.3046   -0.0804    0.2582 C   0  0  0  0  0  0  0  0  0  0  0  0
   -1.4981   -1.3765    0.4757 C   0  0  0  0  0  0  0  0  0  0  0  0
   -0.2143   -1.1734    1.2988 C   0  0  0  0  0  0  0  0  0  0  0  0
    0.8154   -0.3357    0.5783 C   0  0  0  0  0  0  0  0  0  0  0  0
    0.9847    1.0147    0.9334 C   0  0  0  0  0  0  0  0  0  0  0  0
    1.9149    1.8120    0.2615 C   0  0  0  0  0  0  0  0  0  0  0  0
    2.6852    1.2714   -0.7698 C   0  0  0  0  0  0  0  0  0  0  0  0
    2.5281   -0.0685   -1.1316 C   0  0  0  0  0  0  0  0  0  0  0  0
    1.5984   -0.8754   -0.4648 C   0  0  0  0  0  0  0  0  0  0  0  0
    1.4596   -2.2408   -0.8517 N   0  0  0  0  0  1  0  0  0  0  0  0
   -2.6156    1.5000   -1.1926 H   0  0  0  0  0  0  0  0  0  0  0  0
   -2.2271   -0.1025   -1.9194 H   0  0  0  0  0  0  0  0  0  0  0  0
   -0.9271    0.8842   -1.1435 H   0  0  0  0  0  0  0  0  0  0  0  0
   -3.3881   -0.3299    0.2658 H   0  0  0  0  0  0  0  0  0  0  0  0
   -2.1292    0.6406    1.0859 H   0  0  0  0  0  0  0  0  0  0  0  0
   -2.1394   -2.0885    1.0399 H   0  0  0  0  0  0  0  0  0  0  0  0
   -1.2635   -1.8675   -0.4939 H   0  0  0  0  0  0  0  0  0  0  0  0
    0.2247   -2.1685    1.5279 H   0  0  0  0  0  0  0  0  0  0  0  0
   -0.4725   -0.7183    2.2804 H   0  0  0  0  0  0  0  0  0  0  0  0
    0.3901    1.4533    1.7251 H   0  0  0  0  0  0  0  0  0  0  0  0
    2.0367    2.8510    0.5391 H   0  0  0  0  0  0  0  0  0  0  0  0
    3.4045    1.8912   -1.2893 H   0  0  0  0  0  0  0  0  0  0  0  0
    3.1300   -0.4800   -1.9322 H   0  0  0  0  0  0  0  0  0  0  0  0
  1  2  1  0
  2  3  1  0
  3  4  1  0
  4  5  1  0
  5  6  2  0
  6  7  1  0
  7  8  2  0
  8  9  1  0
  9 10  2  0
 10 11  1  0
 10  5  1  0
  1 12  1  0
  1 13  1  0
  1 14  1  0
  2 15  1  0
  2 16  1  0
  3 17  1  0
  3 18  1  0
  4 19  1  0
  4 20  1  0
  6 21  1  0
  7 22  1  0
  8 23  1  0
  9 24  1  0
M  RAD  1  11   3
M  END
$$$$
