
     RDKit          3D

 24 24  0  0  0  0  0  0  0  0999 V2000
    2.7512   -1.0017   -0.9645 C   0  0  0  0  0  0  0  0  0  0  0  0
    1.9707   -0.7837    0.3314 C   0  0  0  0  0  0  0  0  0  0  0  0
    1.6527    0.6991    0.5902 C   0  0  0  0  0  0  0  0  0  0  0  0
    0.5633    1.2755   -0.3312 C   0  0  0  0  0  0  0  0  0  0  0  0
   -0.7936    0.6620   -0.0652 C   0  0  0  0  0  0  0  0  0  0  0  0
   -1.5090    1.0528    1.0809 C   0  0  0  0  0  0  0  0  0  0  0  0
   -2.7565    0.4913    1.3646 C   0  0  0  0  0  0  0  0  0  0  0  0
   -3.3033   -0.4671    0.5098 C   0  0  0  0  0  0  0  0  0  0  0  0
   -2.6039   -0.8664   -0.6311 C   0  0  0  0  0  0  0  0  0  0  0  0
   -1.3531   -0.3097   -0.9247 C   0  0  0  0  0  0  0  0  0  0  0  0
   -0.6635   -0.7391   -2.0962 N   0  0  0  0  0  1  0  0  0  0  0  0
    3.0233   -2.0744   -1.0546 H   0  0  0  0  0  0  0  0  0  0  0  0
    3.6852   -0.4006   -0.9603 H   0  0  0  0  0  0  0  0  0  0  0  0
    2.1405   -0.7249   -1.8475 H   0  0  0  0  0  0  0  0  0  0  0  0
    2.5917   -1.1588    1.1735 H   0  0  0  0  0  0  0  0  0  0  0  0
    1.0393   -1.3883    0.3155 H   0  0  0  0  0  0  0  0  0  0  0  0
    1.3307    0.8143    1.6482 H   0  0  0  0  0  0  0  0  0  0  0  0
    2.5805    1.3003    0.4721 H   0  0  0  0  0  0  0  0  0  0  0  0
    0.8591    1.1699   -1.3951 H   0  0  0  0  0  0  0  0  0  0  0  0
    0.4965    2.3699   -0.1468 H   0  0  0  0  0  0  0  0  0  0  0  0
   -1.0980    1.7933    1.7562 H   0  0  0  0  0  0  0  0  0  0  0  0
   -3.2993    0.7989    2.2491 H   0  0  0  0  0  0  0  0  0  0  0  0
   -4.2696   -0.9013    0.7317 H   0  0  0  0  0  0  0  0  0  0  0  0
   -3.0352   -1.6112   -1.2884 H   0  0  0  0  0  0  0  0  0  0  0  0
  1  2  1  0
  2  3  1  0
  3  4  1  0
  4  5  1  0
  5  6  2  0
  6  7  1  0
  7  8  2  0
  8  9  1  0
  9 10  2  0
 10 11  1  0
 10  5  1  0
  1 12  1  0
  1 13  1  0
  1 14  1  0
  2 15  1  0
  2 16  1  0
  3 17  1  0
  3 18  1  0
  4 19  1  0
  4 20  1  0
  6 21  1  0
  7 22  1  0
  8 23  1  0
  9 24  1  0
M  RAD  1  11   3
M  END
$$$$
