
     RDKit          3D

 27 28  0  0  0  0  0  0  0  0999 V2000
    2.2942   -1.1651   -2.4186 N   0  0  0  0  0  1  0  0  0  0  0  0
    2.2109   -0.2492   -1.3289 C   0  0  0  0  0  0  0  0  0  0  0  0
    2.8371    0.9984   -1.4363 C   0  0  0  0  0  0  0  0  0  0  0  0
    2.7610    1.9173   -0.3870 C   0  0  0  0  0  0  0  0  0  0  0  0
    2.0576    1.5947    0.7750 C   0  0  0  0  0  0  0  0  0  0  0  0
    1.4310    0.3514    0.8923 C   0  0  0  0  0  0  0  0  0  0  0  0
    1.5052   -0.5855   -0.1539 C   0  0  0  0  0  0  0  0  0  0  0  0
    0.7807   -1.9060   -0.0246 C   0  0  0  0  0  0  0  0  0  0  0  0
   -0.5858   -1.8797   -0.7229 C   0  0  0  0  0  0  0  0  0  0  0  0
   -1.5260   -0.9085   -0.0652 C   0  0  0  0  0  0  0  0  0  0  0  0
   -1.6861    0.3907   -0.5711 C   0  0  0  0  0  0  0  0  0  0  0  0
   -2.5310    1.2836    0.0907 C   0  0  0  0  0  0  0  0  0  0  0  0
   -3.2022    0.8787    1.2456 C   0  0  0  0  0  0  0  0  0  0  0  0
   -3.0142   -0.4194    1.7253 C   0  0  0  0  0  0  0  0  0  0  0  0
   -2.1852   -1.2747    1.0692 N   0  0  0  0  0  0  0  0  0  0  0  0
    3.3808    1.2583   -2.3360 H   0  0  0  0  0  0  0  0  0  0  0  0
    3.2447    2.8814   -0.4761 H   0  0  0  0  0  0  0  0  0  0  0  0
    1.9944    2.3103    1.5846 H   0  0  0  0  0  0  0  0  0  0  0  0
    0.8788    0.1226    1.7955 H   0  0  0  0  0  0  0  0  0  0  0  0
    0.6455   -2.1720    1.0472 H   0  0  0  0  0  0  0  0  0  0  0  0
    1.3989   -2.7148   -0.4703 H   0  0  0  0  0  0  0  0  0  0  0  0
   -1.0310   -2.8968   -0.6738 H   0  0  0  0  0  0  0  0  0  0  0  0
   -0.4594   -1.6325   -1.7997 H   0  0  0  0  0  0  0  0  0  0  0  0
   -1.1555    0.7096   -1.4597 H   0  0  0  0  0  0  0  0  0  0  0  0
   -2.6620    2.2887   -0.2887 H   0  0  0  0  0  0  0  0  0  0  0  0
   -3.8584    1.5644    1.7658 H   0  0  0  0  0  0  0  0  0  0  0  0
   -3.5239   -0.7458    2.6219 H   0  0  0  0  0  0  0  0  0  0  0  0
  1  2  1  0
  2  3  2  0
  3  4  1  0
  4  5  2  0
  5  6  1  0
  6  7  2  0
  7  8  1  0
  8  9  1  0
  9 10  1  0
 10 11  2  0
 11 12  1  0
 12 13  2  0
 13 14  1  0
 14 15  2  0
  7  2  1  0
 15 10  1  0
  3 16  1  0
  4 17  1  0
  5 18  1  0
  6 19  1  0
  8 20  1  0
  8 21  1  0
  9 22  1  0
  9 23  1  0
 11 24  1  0
 12 25  1  0
 13 26  1  0
 14 27  1  0
M  RAD  1   1   3
M  END
$$$$
