
     RDKit          3D

 27 28  0  0  0  0  0  0  0  0999 V2000
    2.2925    2.1057   -0.2762 N   0  0  0  0  0  1  0  0  0  0  0  0
    2.7026    0.7577   -0.0562 C   0  0  0  0  0  0  0  0  0  0  0  0
    4.0275    0.3946   -0.3272 C   0  0  0  0  0  0  0  0  0  0  0  0
    4.4501   -0.9228   -0.1345 C   0  0  0  0  0  0  0  0  0  0  0  0
    3.5497   -1.8856    0.3257 C   0  0  0  0  0  0  0  0  0  0  0  0
    2.2254   -1.5327    0.5991 C   0  0  0  0  0  0  0  0  0  0  0  0
    1.7909   -0.2071    0.4239 C   0  0  0  0  0  0  0  0  0  0  0  0
    0.3482    0.1433    0.6944 C   0  0  0  0  0  0  0  0  0  0  0  0
   -0.4878    0.0082   -0.5815 C   0  0  0  0  0  0  0  0  0  0  0  0
   -1.9213    0.3613   -0.3124 C   0  0  0  0  0  0  0  0  0  0  0  0
   -2.8186   -0.6035    0.1696 C   0  0  0  0  0  0  0  0  0  0  0  0
   -4.1378   -0.2356    0.4421 C   0  0  0  0  0  0  0  0  0  0  0  0
   -4.5468    1.0839    0.2413 C   0  0  0  0  0  0  0  0  0  0  0  0
   -3.6239    2.0210   -0.2284 C   0  0  0  0  0  0  0  0  0  0  0  0
   -2.3431    1.6445   -0.4884 N   0  0  0  0  0  0  0  0  0  0  0  0
    4.7302    1.1334   -0.6917 H   0  0  0  0  0  0  0  0  0  0  0  0
    5.4749   -1.1987   -0.3468 H   0  0  0  0  0  0  0  0  0  0  0  0
    3.8771   -2.9074    0.4676 H   0  0  0  0  0  0  0  0  0  0  0  0
    1.5374   -2.2937    0.9464 H   0  0  0  0  0  0  0  0  0  0  0  0
    0.2736    1.1806    1.0880 H   0  0  0  0  0  0  0  0  0  0  0  0
   -0.0617   -0.5292    1.4804 H   0  0  0  0  0  0  0  0  0  0  0  0
   -0.0855    0.6846   -1.3672 H   0  0  0  0  0  0  0  0  0  0  0  0
   -0.4226   -1.0333   -0.9673 H   0  0  0  0  0  0  0  0  0  0  0  0
   -2.4987   -1.6251    0.3337 H   0  0  0  0  0  0  0  0  0  0  0  0
   -4.8408   -0.9711    0.8113 H   0  0  0  0  0  0  0  0  0  0  0  0
   -5.5670    1.3784    0.4510 H   0  0  0  0  0  0  0  0  0  0  0  0
   -3.9246    3.0485   -0.3835 H   0  0  0  0  0  0  0  0  0  0  0  0
  1  2  1  0
  2  3  2  0
  3  4  1  0
  4  5  2  0
  5  6  1  0
  6  7  2  0
  7  8  1  0
  8  9  1  0
  9 10  1  0
 10 11  2  0
 11 12  1  0
 12 13  2  0
 13 14  1  0
 14 15  2  0
  7  2  1  0
 15 10  1  0
  3 16  1  0
  4 17  1  0
  5 18  1  0
  6 19  1  0
  8 20  1  0
  8 21  1  0
  9 22  1  0
  9 23  1  0
 11 24  1  0
 12 25  1  0
 13 26  1  0
 14 27  1  0
M  RAD  1   1   3
M  END
$$$$
