
     RDKit          3D

 27 28  0  0  0  0  0  0  0  0999 V2000
   -1.7842   -0.3779   -2.5845 N   0  0  0  0  0  1  0  0  0  0  0  0
   -2.4761   -0.2003   -1.3503 C   0  0  0  0  0  0  0  0  0  0  0  0
   -3.8406    0.1134   -1.3718 C   0  0  0  0  0  0  0  0  0  0  0  0
   -4.5375    0.3073   -0.1769 C   0  0  0  0  0  0  0  0  0  0  0  0
   -3.8736    0.1932    1.0460 C   0  0  0  0  0  0  0  0  0  0  0  0
   -2.5120   -0.1199    1.0777 C   0  0  0  0  0  0  0  0  0  0  0  0
   -1.8021   -0.3324   -0.1171 C   0  0  0  0  0  0  0  0  0  0  0  0
   -0.3253   -0.6372   -0.0592 C   0  0  0  0  0  0  0  0  0  0  0  0
    0.4952    0.6532   -0.1425 C   0  0  0  0  0  0  0  0  0  0  0  0
    1.9637    0.3486   -0.0893 C   0  0  0  0  0  0  0  0  0  0  0  0
    2.6236    0.2141    1.1414 C   0  0  0  0  0  0  0  0  0  0  0  0
    3.9834   -0.1028    1.1578 C   0  0  0  0  0  0  0  0  0  0  0  0
    4.6678   -0.2902   -0.0443 C   0  0  0  0  0  0  0  0  0  0  0  0
    3.9767   -0.1603   -1.2510 C   0  0  0  0  0  0  0  0  0  0  0  0
    2.6522    0.1488   -1.2477 N   0  0  0  0  0  0  0  0  0  0  0  0
   -4.3613    0.2112   -2.3162 H   0  0  0  0  0  0  0  0  0  0  0  0
   -5.5918    0.5511   -0.1991 H   0  0  0  0  0  0  0  0  0  0  0  0
   -4.4136    0.3508    1.9707 H   0  0  0  0  0  0  0  0  0  0  0  0
   -2.0100   -0.1953    2.0345 H   0  0  0  0  0  0  0  0  0  0  0  0
   -0.0873   -1.1685    0.8891 H   0  0  0  0  0  0  0  0  0  0  0  0
   -0.0425   -1.3201   -0.8899 H   0  0  0  0  0  0  0  0  0  0  0  0
    0.2655    1.1833   -1.0927 H   0  0  0  0  0  0  0  0  0  0  0  0
    0.2206    1.3303    0.6964 H   0  0  0  0  0  0  0  0  0  0  0  0
    2.0903    0.3510    2.0741 H   0  0  0  0  0  0  0  0  0  0  0  0
    4.5050   -0.2061    2.1006 H   0  0  0  0  0  0  0  0  0  0  0  0
    5.7215   -0.5372   -0.0413 H   0  0  0  0  0  0  0  0  0  0  0  0
    4.4922   -0.3081   -2.1905 H   0  0  0  0  0  0  0  0  0  0  0  0
  1  2  1  0
  2  3  2  0
  3  4  1  0
  4  5  2  0
  5  6  1  0
  6  7  2  0
  7  8  1  0
  8  9  1  0
  9 10  1  0
 10 11  2  0
 11 12  1  0
 12 13  2  0
 13 14  1  0
 14 15  2  0
  7  2  1  0
 15 10  1  0
  3 16  1  0
  4 17  1  0
  5 18  1  0
  6 19  1  0
  8 20  1  0
  8 21  1  0
  9 22  1  0
  9 23  1  0
 11 24  1  0
 12 25  1  0
 13 26  1  0
 14 27  1  0
M  RAD  1   1   3
M  END
$$$$
