
     RDKit          3D

 27 28  0  0  0  0  0  0  0  0999 V2000
   -1.2915   -1.6890    2.3128 N   0  0  0  0  0  1  0  0  0  0  0  0
   -2.1938   -0.9677    1.4767 C   0  0  0  0  0  0  0  0  0  0  0  0
   -3.5565   -1.2881    1.5070 C   0  0  0  0  0  0  0  0  0  0  0  0
   -4.4586   -0.6066    0.6865 C   0  0  0  0  0  0  0  0  0  0  0  0
   -4.0029    0.3957   -0.1722 C   0  0  0  0  0  0  0  0  0  0  0  0
   -2.6447    0.7227   -0.2093 C   0  0  0  0  0  0  0  0  0  0  0  0
   -1.7284    0.0550    0.6222 C   0  0  0  0  0  0  0  0  0  0  0  0
   -0.2622    0.4026    0.5412 C   0  0  0  0  0  0  0  0  0  0  0  0
    0.4496   -0.4959   -0.4742 C   0  0  0  0  0  0  0  0  0  0  0  0
    1.9084   -0.1524   -0.5507 C   0  0  0  0  0  0  0  0  0  0  0  0
    2.3605    0.8693   -1.3993 C   0  0  0  0  0  0  0  0  0  0  0  0
    3.7198    1.1879   -1.4231 C   0  0  0  0  0  0  0  0  0  0  0  0
    4.6102    0.4960   -0.6001 C   0  0  0  0  0  0  0  0  0  0  0  0
    4.1237   -0.5072    0.2411 C   0  0  0  0  0  0  0  0  0  0  0  0
    2.7965   -0.8039    0.2508 N   0  0  0  0  0  0  0  0  0  0  0  0
   -3.9171   -2.0693    2.1645 H   0  0  0  0  0  0  0  0  0  0  0  0
   -5.5107   -0.8590    0.7126 H   0  0  0  0  0  0  0  0  0  0  0  0
   -4.7022    0.9177   -0.8124 H   0  0  0  0  0  0  0  0  0  0  0  0
   -2.3065    1.4961   -0.8879 H   0  0  0  0  0  0  0  0  0  0  0  0
    0.2126    0.2946    1.5408 H   0  0  0  0  0  0  0  0  0  0  0  0
   -0.1437    1.4679    0.2423 H   0  0  0  0  0  0  0  0  0  0  0  0
    0.3397   -1.5612   -0.1746 H   0  0  0  0  0  0  0  0  0  0  0  0
   -0.0182   -0.3774   -1.4767 H   0  0  0  0  0  0  0  0  0  0  0  0
    1.6682    1.4118   -2.0312 H   0  0  0  0  0  0  0  0  0  0  0  0
    4.0819    1.9717   -2.0757 H   0  0  0  0  0  0  0  0  0  0  0  0
    5.6652    0.7369   -0.6109 H   0  0  0  0  0  0  0  0  0  0  0  0
    4.8007   -1.0482    0.8886 H   0  0  0  0  0  0  0  0  0  0  0  0
  1  2  1  0
  2  3  2  0
  3  4  1  0
  4  5  2  0
  5  6  1  0
  6  7  2  0
  7  8  1  0
  8  9  1  0
  9 10  1  0
 10 11  2  0
 11 12  1  0
 12 13  2  0
 13 14  1  0
 14 15  2  0
  7  2  1  0
 15 10  1  0
  3 16  1  0
  4 17  1  0
  5 18  1  0
  6 19  1  0
  8 20  1  0
  8 21  1  0
  9 22  1  0
  9 23  1  0
 11 24  1  0
 12 25  1  0
 13 26  1  0
 14 27  1  0
M  RAD  1   1   3
M  END
$$$$
