
     RDKit          3D

 27 28  0  0  0  0  0  0  0  0999 V2000
   -1.9032   -2.2567    0.8987 N   0  0  0  0  0  1  0  0  0  0  0  0
   -2.5330   -1.0327    0.5263 C   0  0  0  0  0  0  0  0  0  0  0  0
   -3.9100   -1.0235    0.2723 C   0  0  0  0  0  0  0  0  0  0  0  0
   -4.5478    0.1594   -0.1088 C   0  0  0  0  0  0  0  0  0  0  0  0
   -3.8121    1.3385   -0.2426 C   0  0  0  0  0  0  0  0  0  0  0  0
   -2.4375    1.3392    0.0090 C   0  0  0  0  0  0  0  0  0  0  0  0
   -1.7859    0.1590    0.4079 C   0  0  0  0  0  0  0  0  0  0  0  0
   -0.2952    0.1768    0.6424 C   0  0  0  0  0  0  0  0  0  0  0  0
    0.4568   -0.1873   -0.6409 C   0  0  0  0  0  0  0  0  0  0  0  0
    1.9388   -0.1737   -0.4055 C   0  0  0  0  0  0  0  0  0  0  0  0
    2.6718    1.0170   -0.5206 C   0  0  0  0  0  0  0  0  0  0  0  0
    4.0440    1.0035   -0.2625 C   0  0  0  0  0  0  0  0  0  0  0  0
    4.6686   -0.1867    0.1141 C   0  0  0  0  0  0  0  0  0  0  0  0
    3.9060   -1.3510    0.2305 C   0  0  0  0  0  0  0  0  0  0  0  0
    2.5706   -1.3190   -0.0249 N   0  0  0  0  0  0  0  0  0  0  0  0
   -4.4865   -1.9353    0.3664 H   0  0  0  0  0  0  0  0  0  0  0  0
   -5.6122    0.1609   -0.3054 H   0  0  0  0  0  0  0  0  0  0  0  0
   -4.3068    2.2525   -0.5450 H   0  0  0  0  0  0  0  0  0  0  0  0
   -1.8800    2.2604   -0.1086 H   0  0  0  0  0  0  0  0  0  0  0  0
   -0.0268   -0.5349    1.4535 H   0  0  0  0  0  0  0  0  0  0  0  0
    0.0202    1.1876    0.9841 H   0  0  0  0  0  0  0  0  0  0  0  0
    0.1495   -1.2005   -0.9814 H   0  0  0  0  0  0  0  0  0  0  0  0
    0.1972    0.5329   -1.4481 H   0  0  0  0  0  0  0  0  0  0  0  0
    2.1853    1.9420   -0.8043 H   0  0  0  0  0  0  0  0  0  0  0  0
    4.6215    1.9146   -0.3509 H   0  0  0  0  0  0  0  0  0  0  0  0
    5.7315   -0.2063    0.3174 H   0  0  0  0  0  0  0  0  0  0  0  0
    4.3750   -2.2797    0.5269 H   0  0  0  0  0  0  0  0  0  0  0  0
  1  2  1  0
  2  3  2  0
  3  4  1  0
  4  5  2  0
  5  6  1  0
  6  7  2  0
  7  8  1  0
  8  9  1  0
  9 10  1  0
 10 11  2  0
 11 12  1  0
 12 13  2  0
 13 14  1  0
 14 15  2  0
  7  2  1  0
 15 10  1  0
  3 16  1  0
  4 17  1  0
  5 18  1  0
  6 19  1  0
  8 20  1  0
  8 21  1  0
  9 22  1  0
  9 23  1  0
 11 24  1  0
 12 25  1  0
 13 26  1  0
 14 27  1  0
M  RAD  1   1   3
M  END
$$$$
