
     RDKit          3D

 27 28  0  0  0  0  0  0  0  0999 V2000
    2.2662   -2.6846    0.4044 N   0  0  0  0  0  1  0  0  0  0  0  0
    2.2130   -1.2640    0.5161 C   0  0  0  0  0  0  0  0  0  0  0  0
    2.8998   -0.6353    1.5617 C   0  0  0  0  0  0  0  0  0  0  0  0
    2.8545    0.7541    1.6990 C   0  0  0  0  0  0  0  0  0  0  0  0
    2.1218    1.5226    0.7926 C   0  0  0  0  0  0  0  0  0  0  0  0
    1.4348    0.9044   -0.2552 C   0  0  0  0  0  0  0  0  0  0  0  0
    1.4772   -0.4929   -0.4089 C   0  0  0  0  0  0  0  0  0  0  0  0
    0.6886   -1.1446   -1.5218 C   0  0  0  0  0  0  0  0  0  0  0  0
   -0.6661   -1.6724   -1.0300 C   0  0  0  0  0  0  0  0  0  0  0  0
   -1.5669   -0.5555   -0.5819 C   0  0  0  0  0  0  0  0  0  0  0  0
   -1.6580   -0.2065    0.7743 C   0  0  0  0  0  0  0  0  0  0  0  0
   -2.4674    0.8665    1.1521 C   0  0  0  0  0  0  0  0  0  0  0  0
   -3.1719    1.5807    0.1816 C   0  0  0  0  0  0  0  0  0  0  0  0
   -3.0525    1.2106   -1.1598 C   0  0  0  0  0  0  0  0  0  0  0  0
   -2.2573    0.1644   -1.5096 N   0  0  0  0  0  0  0  0  0  0  0  0
    3.4667   -1.2243    2.2718 H   0  0  0  0  0  0  0  0  0  0  0  0
    3.3851    1.2350    2.5106 H   0  0  0  0  0  0  0  0  0  0  0  0
    2.0827    2.5985    0.9041 H   0  0  0  0  0  0  0  0  0  0  0  0
    0.8608    1.5146   -0.9417 H   0  0  0  0  0  0  0  0  0  0  0  0
    0.5271   -0.4264   -2.3560 H   0  0  0  0  0  0  0  0  0  0  0  0
    1.2728   -1.9890   -1.9468 H   0  0  0  0  0  0  0  0  0  0  0  0
   -0.5144   -2.4054   -0.2077 H   0  0  0  0  0  0  0  0  0  0  0  0
   -1.1603   -2.2174   -1.8630 H   0  0  0  0  0  0  0  0  0  0  0  0
   -1.1015   -0.7519    1.5264 H   0  0  0  0  0  0  0  0  0  0  0  0
   -2.5452    1.1463    2.1947 H   0  0  0  0  0  0  0  0  0  0  0  0
   -3.8010    2.4145    0.4651 H   0  0  0  0  0  0  0  0  0  0  0  0
   -3.5886    1.7578   -1.9235 H   0  0  0  0  0  0  0  0  0  0  0  0
  1  2  1  0
  2  3  2  0
  3  4  1  0
  4  5  2  0
  5  6  1  0
  6  7  2  0
  7  8  1  0
  8  9  1  0
  9 10  1  0
 10 11  2  0
 11 12  1  0
 12 13  2  0
 13 14  1  0
 14 15  2  0
  7  2  1  0
 15 10  1  0
  3 16  1  0
  4 17  1  0
  5 18  1  0
  6 19  1  0
  8 20  1  0
  8 21  1  0
  9 22  1  0
  9 23  1  0
 11 24  1  0
 12 25  1  0
 13 26  1  0
 14 27  1  0
M  RAD  1   1   3
M  END
$$$$
