
     RDKit          3D

 27 28  0  0  0  0  0  0  0  0999 V2000
   -1.9872   -1.1661   -2.1241 N   0  0  0  0  0  1  0  0  0  0  0  0
   -2.5458   -0.2787   -1.1575 C   0  0  0  0  0  0  0  0  0  0  0  0
   -3.9362   -0.2282   -1.0005 C   0  0  0  0  0  0  0  0  0  0  0  0
   -4.5072    0.6215   -0.0501 C   0  0  0  0  0  0  0  0  0  0  0  0
   -3.6913    1.4219    0.7519 C   0  0  0  0  0  0  0  0  0  0  0  0
   -2.3025    1.3786    0.6024 C   0  0  0  0  0  0  0  0  0  0  0  0
   -1.7158    0.5391   -0.3607 C   0  0  0  0  0  0  0  0  0  0  0  0
   -0.2125    0.4849   -0.4816 C   0  0  0  0  0  0  0  0  0  0  0  0
    0.3605   -0.6216    0.4086 C   0  0  0  0  0  0  0  0  0  0  0  0
    1.8549   -0.6774    0.2842 C   0  0  0  0  0  0  0  0  0  0  0  0
    2.6712    0.1432    1.0770 C   0  0  0  0  0  0  0  0  0  0  0  0
    4.0571    0.0921    0.9140 C   0  0  0  0  0  0  0  0  0  0  0  0
    4.6138   -0.7644   -0.0374 C   0  0  0  0  0  0  0  0  0  0  0  0
    3.7706   -1.5586   -0.8178 C   0  0  0  0  0  0  0  0  0  0  0  0
    2.4231   -1.4956   -0.6451 N   0  0  0  0  0  0  0  0  0  0  0  0
   -4.5757   -0.8513   -1.6132 H   0  0  0  0  0  0  0  0  0  0  0  0
   -5.5825    0.6557    0.0683 H   0  0  0  0  0  0  0  0  0  0  0  0
   -4.1351    2.0743    1.4927 H   0  0  0  0  0  0  0  0  0  0  0  0
   -1.6837    1.9990    1.2390 H   0  0  0  0  0  0  0  0  0  0  0  0
    0.0803    0.3094   -1.5399 H   0  0  0  0  0  0  0  0  0  0  0  0
    0.2246    1.4643   -0.1852 H   0  0  0  0  0  0  0  0  0  0  0  0
    0.0775   -0.4379    1.4687 H   0  0  0  0  0  0  0  0  0  0  0  0
   -0.0686   -1.6032    0.1102 H   0  0  0  0  0  0  0  0  0  0  0  0
    2.2385    0.8140    1.8089 H   0  0  0  0  0  0  0  0  0  0  0  0
    4.6981    0.7176    1.5217 H   0  0  0  0  0  0  0  0  0  0  0  0
    5.6868   -0.8097   -0.1715 H   0  0  0  0  0  0  0  0  0  0  0  0
    4.1871   -2.2230   -1.5630 H   0  0  0  0  0  0  0  0  0  0  0  0
  1  2  1  0
  2  3  2  0
  3  4  1  0
  4  5  2  0
  5  6  1  0
  6  7  2  0
  7  8  1  0
  8  9  1  0
  9 10  1  0
 10 11  2  0
 11 12  1  0
 12 13  2  0
 13 14  1  0
 14 15  2  0
  7  2  1  0
 15 10  1  0
  3 16  1  0
  4 17  1  0
  5 18  1  0
  6 19  1  0
  8 20  1  0
  8 21  1  0
  9 22  1  0
  9 23  1  0
 11 24  1  0
 12 25  1  0
 13 26  1  0
 14 27  1  0
M  RAD  1   1   3
M  END
$$$$
