
     RDKit          3D

 27 28  0  0  0  0  0  0  0  0999 V2000
   -1.9341   -2.0821    1.3654 N   0  0  0  0  0  1  0  0  0  0  0  0
   -2.5505   -0.9832    0.6976 C   0  0  0  0  0  0  0  0  0  0  0  0
   -3.9147   -1.0502    0.3893 C   0  0  0  0  0  0  0  0  0  0  0  0
   -4.5386    0.0065   -0.2779 C   0  0  0  0  0  0  0  0  0  0  0  0
   -3.8015    1.1341   -0.6448 C   0  0  0  0  0  0  0  0  0  0  0  0
   -2.4395    1.2103   -0.3412 C   0  0  0  0  0  0  0  0  0  0  0  0
   -1.8027    0.1603    0.3434 C   0  0  0  0  0  0  0  0  0  0  0  0
   -0.3241    0.2508    0.6314 C   0  0  0  0  0  0  0  0  0  0  0  0
    0.4858   -0.3852   -0.5020 C   0  0  0  0  0  0  0  0  0  0  0  0
    1.9558   -0.2988   -0.2125 C   0  0  0  0  0  0  0  0  0  0  0  0
    2.6894    0.8442   -0.5640 C   0  0  0  0  0  0  0  0  0  0  0  0
    4.0487    0.9081   -0.2509 C   0  0  0  0  0  0  0  0  0  0  0  0
    4.6596   -0.1571    0.4131 C   0  0  0  0  0  0  0  0  0  0  0  0
    3.8963   -1.2745    0.7586 C   0  0  0  0  0  0  0  0  0  0  0  0
    2.5735   -1.3192    0.4455 N   0  0  0  0  0  0  0  0  0  0  0  0
   -4.4919   -1.9244    0.6635 H   0  0  0  0  0  0  0  0  0  0  0  0
   -5.5931   -0.0509   -0.5152 H   0  0  0  0  0  0  0  0  0  0  0  0
   -4.2851    1.9489   -1.1681 H   0  0  0  0  0  0  0  0  0  0  0  0
   -1.8803    2.0880   -0.6413 H   0  0  0  0  0  0  0  0  0  0  0  0
   -0.0900   -0.2545    1.5939 H   0  0  0  0  0  0  0  0  0  0  0  0
   -0.0275    1.3169    0.7474 H   0  0  0  0  0  0  0  0  0  0  0  0
    0.2604    0.1294   -1.4622 H   0  0  0  0  0  0  0  0  0  0  0  0
    0.1974   -1.4532   -0.6159 H   0  0  0  0  0  0  0  0  0  0  0  0
    2.2132    1.6741   -1.0713 H   0  0  0  0  0  0  0  0  0  0  0  0
    4.6267    1.7828   -0.5195 H   0  0  0  0  0  0  0  0  0  0  0  0
    5.7124   -0.1159    0.6609 H   0  0  0  0  0  0  0  0  0  0  0  0
    4.3545   -2.1053    1.2783 H   0  0  0  0  0  0  0  0  0  0  0  0
  1  2  1  0
  2  3  2  0
  3  4  1  0
  4  5  2  0
  5  6  1  0
  6  7  2  0
  7  8  1  0
  8  9  1  0
  9 10  1  0
 10 11  2  0
 11 12  1  0
 12 13  2  0
 13 14  1  0
 14 15  2  0
  7  2  1  0
 15 10  1  0
  3 16  1  0
  4 17  1  0
  5 18  1  0
  6 19  1  0
  8 20  1  0
  8 21  1  0
  9 22  1  0
  9 23  1  0
 11 24  1  0
 12 25  1  0
 13 26  1  0
 14 27  1  0
M  RAD  1   1   3
M  END
$$$$
