
     RDKit          3D

 27 28  0  0  0  0  0  0  0  0999 V2000
   -2.1186   -2.2535    0.7235 N   0  0  0  0  0  1  0  0  0  0  0  0
   -2.6341   -0.9513    0.4546 C   0  0  0  0  0  0  0  0  0  0  0  0
   -3.9773   -0.6769    0.7390 C   0  0  0  0  0  0  0  0  0  0  0  0
   -4.5024    0.5951    0.4989 C   0  0  0  0  0  0  0  0  0  0  0  0
   -3.6866    1.6011   -0.0224 C   0  0  0  0  0  0  0  0  0  0  0  0
   -2.3447    1.3367   -0.3097 C   0  0  0  0  0  0  0  0  0  0  0  0
   -1.8075    0.0567   -0.0870 C   0  0  0  0  0  0  0  0  0  0  0  0
   -0.3478   -0.1962   -0.3742 C   0  0  0  0  0  0  0  0  0  0  0  0
    0.4996    0.0583    0.8757 C   0  0  0  0  0  0  0  0  0  0  0  0
    1.9504   -0.1978    0.5902 C   0  0  0  0  0  0  0  0  0  0  0  0
    2.7625    0.8091    0.0470 C   0  0  0  0  0  0  0  0  0  0  0  0
    4.1004    0.5294   -0.2387 C   0  0  0  0  0  0  0  0  0  0  0  0
    4.6123   -0.7453    0.0097 C   0  0  0  0  0  0  0  0  0  0  0  0
    3.7723   -1.7271    0.5399 C   0  0  0  0  0  0  0  0  0  0  0  0
    2.4718   -1.4366    0.8119 N   0  0  0  0  0  0  0  0  0  0  0  0
   -4.6149   -1.4494    1.1507 H   0  0  0  0  0  0  0  0  0  0  0  0
   -5.5410    0.8024    0.7219 H   0  0  0  0  0  0  0  0  0  0  0  0
   -4.0933    2.5881   -0.2010 H   0  0  0  0  0  0  0  0  0  0  0  0
   -1.7233    2.1309   -0.7049 H   0  0  0  0  0  0  0  0  0  0  0  0
   -0.0052    0.4693   -1.1976 H   0  0  0  0  0  0  0  0  0  0  0  0
   -0.2020   -1.2415   -0.7242 H   0  0  0  0  0  0  0  0  0  0  0  0
    0.3627    1.1081    1.2174 H   0  0  0  0  0  0  0  0  0  0  0  0
    0.1648   -0.6106    1.6986 H   0  0  0  0  0  0  0  0  0  0  0  0
    2.3628    1.7954   -0.1538 H   0  0  0  0  0  0  0  0  0  0  0  0
    4.7384    1.2984   -0.6549 H   0  0  0  0  0  0  0  0  0  0  0  0
    5.6477   -0.9715   -0.2097 H   0  0  0  0  0  0  0  0  0  0  0  0
    4.1531   -2.7211    0.7325 H   0  0  0  0  0  0  0  0  0  0  0  0
  1  2  1  0
  2  3  2  0
  3  4  1  0
  4  5  2  0
  5  6  1  0
  6  7  2  0
  7  8  1  0
  8  9  1  0
  9 10  1  0
 10 11  2  0
 11 12  1  0
 12 13  2  0
 13 14  1  0
 14 15  2  0
  7  2  1  0
 15 10  1  0
  3 16  1  0
  4 17  1  0
  5 18  1  0
  6 19  1  0
  8 20  1  0
  8 21  1  0
  9 22  1  0
  9 23  1  0
 11 24  1  0
 12 25  1  0
 13 26  1  0
 14 27  1  0
M  RAD  1   1   3
M  END
$$$$
