
     RDKit          3D

 27 28  0  0  0  0  0  0  0  0999 V2000
   -2.0457   -0.8736   -2.7428 N   0  0  0  0  0  1  0  0  0  0  0  0
   -2.0419   -0.0267   -1.5956 C   0  0  0  0  0  0  0  0  0  0  0  0
   -2.5741    1.2642   -1.6984 C   0  0  0  0  0  0  0  0  0  0  0  0
   -2.5724    2.1168   -0.5919 C   0  0  0  0  0  0  0  0  0  0  0  0
   -2.0377    1.6843    0.6231 C   0  0  0  0  0  0  0  0  0  0  0  0
   -1.5060    0.3972    0.7359 C   0  0  0  0  0  0  0  0  0  0  0  0
   -1.5073   -0.4737   -0.3684 C   0  0  0  0  0  0  0  0  0  0  0  0
   -0.8848   -1.8450   -0.2369 C   0  0  0  0  0  0  0  0  0  0  0  0
    0.5562   -1.8722   -0.7645 C   0  0  0  0  0  0  0  0  0  0  0  0
    1.4652   -1.0040    0.0600 C   0  0  0  0  0  0  0  0  0  0  0  0
    1.7639    0.3073   -0.3407 C   0  0  0  0  0  0  0  0  0  0  0  0
    2.5732    1.1037    0.4717 C   0  0  0  0  0  0  0  0  0  0  0  0
    3.0720    0.5918    1.6706 C   0  0  0  0  0  0  0  0  0  0  0  0
    2.7489   -0.7152    2.0421 C   0  0  0  0  0  0  0  0  0  0  0  0
    1.9568   -1.4755    1.2396 N   0  0  0  0  0  0  0  0  0  0  0  0
   -2.9866    1.6092   -2.6383 H   0  0  0  0  0  0  0  0  0  0  0  0
   -2.9828    3.1147   -0.6773 H   0  0  0  0  0  0  0  0  0  0  0  0
   -2.0315    2.3484    1.4777 H   0  0  0  0  0  0  0  0  0  0  0  0
   -1.0837    0.0824    1.6823 H   0  0  0  0  0  0  0  0  0  0  0  0
   -1.4910   -2.5847   -0.8028 H   0  0  0  0  0  0  0  0  0  0  0  0
   -0.8985   -2.1780    0.8246 H   0  0  0  0  0  0  0  0  0  0  0  0
    0.9301   -2.9181   -0.7267 H   0  0  0  0  0  0  0  0  0  0  0  0
    0.5781   -1.5583   -1.8311 H   0  0  0  0  0  0  0  0  0  0  0  0
    1.3665    0.7095   -1.2644 H   0  0  0  0  0  0  0  0  0  0  0  0
    2.8099    2.1170    0.1743 H   0  0  0  0  0  0  0  0  0  0  0  0
    3.6993    1.2022    2.3071 H   0  0  0  0  0  0  0  0  0  0  0  0
    3.1241   -1.1240    2.9707 H   0  0  0  0  0  0  0  0  0  0  0  0
  1  2  1  0
  2  3  2  0
  3  4  1  0
  4  5  2  0
  5  6  1  0
  6  7  2  0
  7  8  1  0
  8  9  1  0
  9 10  1  0
 10 11  2  0
 11 12  1  0
 12 13  2  0
 13 14  1  0
 14 15  2  0
  7  2  1  0
 15 10  1  0
  3 16  1  0
  4 17  1  0
  5 18  1  0
  6 19  1  0
  8 20  1  0
  8 21  1  0
  9 22  1  0
  9 23  1  0
 11 24  1  0
 12 25  1  0
 13 26  1  0
 14 27  1  0
M  RAD  1   1   3
M  END
$$$$
