
     RDKit          3D

 34 35  0  0  0  0  0  0  0  0999 V2000
    4.5718   -0.1004   -1.1385 C   0  0  0  0  0  0  0  0  0  0  0  0
    3.3585   -0.2403   -0.2678 C   0  0  0  0  0  0  0  0  0  0  0  0
    3.2415   -1.3269    0.6121 C   0  0  0  0  0  0  0  0  0  0  0  0
    2.1255   -1.4407    1.4448 C   0  0  0  0  0  0  0  0  0  0  0  0
    1.1263   -0.4652    1.4166 C   0  0  0  0  0  0  0  0  0  0  0  0
    1.2403    0.6398    0.5574 C   0  0  0  0  0  0  0  0  0  0  0  0
    0.1487    1.6780    0.5015 C   0  0  0  0  0  0  0  0  0  0  0  0
   -0.7698    1.4903   -0.7176 C   0  0  0  0  0  0  0  0  0  0  0  0
   -1.6231    0.2428   -0.6045 C   0  0  0  0  0  0  0  0  0  0  0  0
   -1.0642   -0.9788   -1.0264 C   0  0  0  0  0  0  0  0  0  0  0  0
   -1.7727   -2.1725   -0.8969 C   0  0  0  0  0  0  0  0  0  0  0  0
   -3.0535   -2.1670   -0.3512 C   0  0  0  0  0  0  0  0  0  0  0  0
   -3.6343   -0.9667    0.0586 C   0  0  0  0  0  0  0  0  0  0  0  0
   -2.9377    0.2489   -0.0613 C   0  0  0  0  0  0  0  0  0  0  0  0
   -3.7692    1.7431    0.4127 S   0  0  0  0  0  0  0  0  0  0  0  0
   -2.8686    2.5827    1.6232 N   0  0  0  0  0  1  0  0  0  0  0  0
   -3.9442    2.6249   -0.7914 O   0  0  0  0  0  0  0  0  0  0  0  0
   -5.1275    1.4257    0.9728 O   0  0  0  0  0  0  0  0  0  0  0  0
    2.3617    0.7480   -0.2814 C   0  0  0  0  0  0  0  0  0  0  0  0
    5.3478    0.4818   -0.5992 H   0  0  0  0  0  0  0  0  0  0  0  0
    4.9841   -1.0981   -1.4007 H   0  0  0  0  0  0  0  0  0  0  0  0
    4.3165    0.4241   -2.0838 H   0  0  0  0  0  0  0  0  0  0  0  0
    4.0118   -2.0873    0.6508 H   0  0  0  0  0  0  0  0  0  0  0  0
    2.0346   -2.2872    2.1131 H   0  0  0  0  0  0  0  0  0  0  0  0
    0.2615   -0.5740    2.0594 H   0  0  0  0  0  0  0  0  0  0  0  0
   -0.4485    1.6549    1.4370 H   0  0  0  0  0  0  0  0  0  0  0  0
    0.6138    2.6862    0.4458 H   0  0  0  0  0  0  0  0  0  0  0  0
   -1.3987    2.3939   -0.8346 H   0  0  0  0  0  0  0  0  0  0  0  0
   -0.1537    1.4423   -1.6425 H   0  0  0  0  0  0  0  0  0  0  0  0
   -0.0673   -1.0088   -1.4493 H   0  0  0  0  0  0  0  0  0  0  0  0
   -1.3259   -3.1044   -1.2187 H   0  0  0  0  0  0  0  0  0  0  0  0
   -3.6022   -3.0948   -0.2524 H   0  0  0  0  0  0  0  0  0  0  0  0
   -4.6370   -0.9917    0.4641 H   0  0  0  0  0  0  0  0  0  0  0  0
    2.4538    1.5975   -0.9480 H   0  0  0  0  0  0  0  0  0  0  0  0
  1  2  1  0
  2  3  1  0
  3  4  2  0
  4  5  1  0
  5  6  2  0
  6  7  1  0
  7  8  1  0
  8  9  1  0
  9 10  2  0
 10 11  1  0
 11 12  2  0
 12 13  1  0
 13 14  2  0
 14 15  1  0
 15 16  1  0
 15 17  2  0
 15 18  2  0
  6 19  1  0
 19  2  2  0
 14  9  1  0
  1 20  1  0
  1 21  1  0
  1 22  1  0
  3 23  1  0
  4 24  1  0
  5 25  1  0
  7 26  1  0
  7 27  1  0
  8 28  1  0
  8 29  1  0
 10 30  1  0
 11 31  1  0
 12 32  1  0
 13 33  1  0
 19 34  1  0
M  RAD  1  16   3
M  END
$$$$
