
     RDKit          3D

 34 35  0  0  0  0  0  0  0  0999 V2000
    3.0168   -2.3281   -0.0766 C   0  0  0  0  0  0  0  0  0  0  0  0
    2.7533   -0.8517   -0.0897 C   0  0  0  0  0  0  0  0  0  0  0  0
    3.5773    0.0077   -0.8320 C   0  0  0  0  0  0  0  0  0  0  0  0
    3.3000    1.3761   -0.8852 C   0  0  0  0  0  0  0  0  0  0  0  0
    2.1920    1.8947   -0.2108 C   0  0  0  0  0  0  0  0  0  0  0  0
    1.3519    1.0457    0.5264 C   0  0  0  0  0  0  0  0  0  0  0  0
    0.1235    1.5967    1.2045 C   0  0  0  0  0  0  0  0  0  0  0  0
   -1.0386    1.8066    0.2192 C   0  0  0  0  0  0  0  0  0  0  0  0
   -1.5990    0.4947   -0.2934 C   0  0  0  0  0  0  0  0  0  0  0  0
   -0.9704   -0.1023   -1.4031 C   0  0  0  0  0  0  0  0  0  0  0  0
   -1.3937   -1.3400   -1.8852 C   0  0  0  0  0  0  0  0  0  0  0  0
   -2.4572   -1.9990   -1.2746 C   0  0  0  0  0  0  0  0  0  0  0  0
   -3.1079   -1.4182   -0.1858 C   0  0  0  0  0  0  0  0  0  0  0  0
   -2.6966   -0.1717    0.3186 C   0  0  0  0  0  0  0  0  0  0  0  0
   -3.6201    0.5382    1.6573 S   0  0  0  0  0  0  0  0  0  0  0  0
   -2.5913    0.8499    3.0085 N   0  0  0  0  0  1  0  0  0  0  0  0
   -4.7029   -0.4063    2.0988 O   0  0  0  0  0  0  0  0  0  0  0  0
   -4.2612    1.8189    1.2026 O   0  0  0  0  0  0  0  0  0  0  0  0
    1.6341   -0.3300    0.5771 C   0  0  0  0  0  0  0  0  0  0  0  0
    4.1000   -2.5359   -0.2090 H   0  0  0  0  0  0  0  0  0  0  0  0
    2.4516   -2.8104   -0.9013 H   0  0  0  0  0  0  0  0  0  0  0  0
    2.6975   -2.7727    0.8900 H   0  0  0  0  0  0  0  0  0  0  0  0
    4.4315   -0.3817   -1.3722 H   0  0  0  0  0  0  0  0  0  0  0  0
    3.9398    2.0346   -1.4583 H   0  0  0  0  0  0  0  0  0  0  0  0
    1.9812    2.9552   -0.2718 H   0  0  0  0  0  0  0  0  0  0  0  0
    0.3764    2.5735    1.6713 H   0  0  0  0  0  0  0  0  0  0  0  0
   -0.1904    0.9227    2.0287 H   0  0  0  0  0  0  0  0  0  0  0  0
   -0.6910    2.4273   -0.6361 H   0  0  0  0  0  0  0  0  0  0  0  0
   -1.8243    2.4087    0.7150 H   0  0  0  0  0  0  0  0  0  0  0  0
   -0.1367    0.3884   -1.8906 H   0  0  0  0  0  0  0  0  0  0  0  0
   -0.8933   -1.7902   -2.7329 H   0  0  0  0  0  0  0  0  0  0  0  0
   -2.7849   -2.9595   -1.6510 H   0  0  0  0  0  0  0  0  0  0  0  0
   -3.9417   -1.9462    0.2574 H   0  0  0  0  0  0  0  0  0  0  0  0
    0.9742   -0.9956    1.1212 H   0  0  0  0  0  0  0  0  0  0  0  0
  1  2  1  0
  2  3  1  0
  3  4  2  0
  4  5  1  0
  5  6  2  0
  6  7  1  0
  7  8  1  0
  8  9  1  0
  9 10  2  0
 10 11  1  0
 11 12  2  0
 12 13  1  0
 13 14  2  0
 14 15  1  0
 15 16  1  0
 15 17  2  0
 15 18  2  0
  6 19  1  0
 19  2  2  0
 14  9  1  0
  1 20  1  0
  1 21  1  0
  1 22  1  0
  3 23  1  0
  4 24  1  0
  5 25  1  0
  7 26  1  0
  7 27  1  0
  8 28  1  0
  8 29  1  0
 10 30  1  0
 11 31  1  0
 12 32  1  0
 13 33  1  0
 19 34  1  0
M  RAD  1  16   3
M  END
$$$$
