
     RDKit          3D

 34 35  0  0  0  0  0  0  0  0999 V2000
    4.5180    1.5079   -0.6818 C   0  0  0  0  0  0  0  0  0  0  0  0
    3.6794    0.3904   -0.1359 C   0  0  0  0  0  0  0  0  0  0  0  0
    4.2470   -0.5669    0.7187 C   0  0  0  0  0  0  0  0  0  0  0  0
    3.4721   -1.6230    1.2050 C   0  0  0  0  0  0  0  0  0  0  0  0
    2.1317   -1.7414    0.8294 C   0  0  0  0  0  0  0  0  0  0  0  0
    1.5594   -0.8100   -0.0511 C   0  0  0  0  0  0  0  0  0  0  0  0
    0.1082   -0.9207   -0.4344 C   0  0  0  0  0  0  0  0  0  0  0  0
   -0.7708   -0.1513    0.5578 C   0  0  0  0  0  0  0  0  0  0  0  0
   -2.2245   -0.2109    0.1450 C   0  0  0  0  0  0  0  0  0  0  0  0
   -2.9558   -1.3662    0.4774 C   0  0  0  0  0  0  0  0  0  0  0  0
   -4.2926   -1.4977    0.1016 C   0  0  0  0  0  0  0  0  0  0  0  0
   -4.9187   -0.4812   -0.6157 C   0  0  0  0  0  0  0  0  0  0  0  0
   -4.2099    0.6696   -0.9627 C   0  0  0  0  0  0  0  0  0  0  0  0
   -2.8607    0.8205   -0.5979 C   0  0  0  0  0  0  0  0  0  0  0  0
   -2.0245    2.3143   -1.0593 S   0  0  0  0  0  0  0  0  0  0  0  0
   -1.6641    3.2368    0.3563 N   0  0  0  0  0  1  0  0  0  0  0  0
   -2.8960    3.1415   -1.9624 O   0  0  0  0  0  0  0  0  0  0  0  0
   -0.7534    1.9910   -1.7915 O   0  0  0  0  0  0  0  0  0  0  0  0
    2.3376    0.2583   -0.5269 C   0  0  0  0  0  0  0  0  0  0  0  0
    5.3206    1.7830    0.0352 H   0  0  0  0  0  0  0  0  0  0  0  0
    4.9811    1.1882   -1.6386 H   0  0  0  0  0  0  0  0  0  0  0  0
    3.8965    2.4105   -0.8636 H   0  0  0  0  0  0  0  0  0  0  0  0
    5.2867   -0.4926    1.0126 H   0  0  0  0  0  0  0  0  0  0  0  0
    3.9114   -2.3511    1.8746 H   0  0  0  0  0  0  0  0  0  0  0  0
    1.5409   -2.5601    1.2214 H   0  0  0  0  0  0  0  0  0  0  0  0
   -0.0403   -0.5255   -1.4625 H   0  0  0  0  0  0  0  0  0  0  0  0
   -0.1951   -1.9909   -0.4515 H   0  0  0  0  0  0  0  0  0  0  0  0
   -0.4166    0.8946    0.6495 H   0  0  0  0  0  0  0  0  0  0  0  0
   -0.6579   -0.6016    1.5690 H   0  0  0  0  0  0  0  0  0  0  0  0
   -2.4859   -2.1712    1.0295 H   0  0  0  0  0  0  0  0  0  0  0  0
   -4.8436   -2.3910    0.3663 H   0  0  0  0  0  0  0  0  0  0  0  0
   -5.9567   -0.5846   -0.9047 H   0  0  0  0  0  0  0  0  0  0  0  0
   -4.7221    1.4442   -1.5179 H   0  0  0  0  0  0  0  0  0  0  0  0
    1.8985    0.9869   -1.1981 H   0  0  0  0  0  0  0  0  0  0  0  0
  1  2  1  0
  2  3  1  0
  3  4  2  0
  4  5  1  0
  5  6  2  0
  6  7  1  0
  7  8  1  0
  8  9  1  0
  9 10  2  0
 10 11  1  0
 11 12  2  0
 12 13  1  0
 13 14  2  0
 14 15  1  0
 15 16  1  0
 15 17  2  0
 15 18  2  0
  6 19  1  0
 19  2  2  0
 14  9  1  0
  1 20  1  0
  1 21  1  0
  1 22  1  0
  3 23  1  0
  4 24  1  0
  5 25  1  0
  7 26  1  0
  7 27  1  0
  8 28  1  0
  8 29  1  0
 10 30  1  0
 11 31  1  0
 12 32  1  0
 13 33  1  0
 19 34  1  0
M  RAD  1  16   3
M  END
$$$$
