
     RDKit          3D

 34 35  0  0  0  0  0  0  0  0999 V2000
    4.5040   -1.3805   -0.2208 C   0  0  0  0  0  0  0  0  0  0  0  0
    3.3444   -0.4473   -0.4053 C   0  0  0  0  0  0  0  0  0  0  0  0
    3.1455    0.1978   -1.6352 C   0  0  0  0  0  0  0  0  0  0  0  0
    2.0413    1.0333   -1.8209 C   0  0  0  0  0  0  0  0  0  0  0  0
    1.1223    1.2224   -0.7862 C   0  0  0  0  0  0  0  0  0  0  0  0
    1.3001    0.5721    0.4457 C   0  0  0  0  0  0  0  0  0  0  0  0
    0.2823    0.7324    1.5462 C   0  0  0  0  0  0  0  0  0  0  0  0
   -0.6694   -0.4721    1.6380 C   0  0  0  0  0  0  0  0  0  0  0  0
   -1.6036   -0.5557    0.4474 C   0  0  0  0  0  0  0  0  0  0  0  0
   -1.1375   -1.2047   -0.7120 C   0  0  0  0  0  0  0  0  0  0  0  0
   -1.9232   -1.2669   -1.8621 C   0  0  0  0  0  0  0  0  0  0  0  0
   -3.1900   -0.6895   -1.8727 C   0  0  0  0  0  0  0  0  0  0  0  0
   -3.6797   -0.0557   -0.7305 C   0  0  0  0  0  0  0  0  0  0  0  0
   -2.9042    0.0202    0.4401 C   0  0  0  0  0  0  0  0  0  0  0  0
   -3.6230    0.7765    1.8754 S   0  0  0  0  0  0  0  0  0  0  0  0
   -2.6451    2.0889    2.4256 N   0  0  0  0  0  1  0  0  0  0  0  0
   -4.9893    1.3124    1.5503 O   0  0  0  0  0  0  0  0  0  0  0  0
   -3.7595   -0.2463    2.9677 O   0  0  0  0  0  0  0  0  0  0  0  0
    2.4094   -0.2703    0.6267 C   0  0  0  0  0  0  0  0  0  0  0  0
    4.2018   -2.4070   -0.5157 H   0  0  0  0  0  0  0  0  0  0  0  0
    5.3664   -1.0631   -0.8450 H   0  0  0  0  0  0  0  0  0  0  0  0
    4.8336   -1.3901    0.8400 H   0  0  0  0  0  0  0  0  0  0  0  0
    3.8434    0.0522   -2.4505 H   0  0  0  0  0  0  0  0  0  0  0  0
    1.8931    1.5291   -2.7715 H   0  0  0  0  0  0  0  0  0  0  0  0
    0.2639    1.8620   -0.9506 H   0  0  0  0  0  0  0  0  0  0  0  0
   -0.2974    1.6671    1.3966 H   0  0  0  0  0  0  0  0  0  0  0  0
    0.8154    0.8404    2.5158 H   0  0  0  0  0  0  0  0  0  0  0  0
   -1.2374   -0.4082    2.5863 H   0  0  0  0  0  0  0  0  0  0  0  0
   -0.0754   -1.4093    1.7167 H   0  0  0  0  0  0  0  0  0  0  0  0
   -0.1532   -1.6567   -0.7293 H   0  0  0  0  0  0  0  0  0  0  0  0
   -1.5472   -1.7624   -2.7479 H   0  0  0  0  0  0  0  0  0  0  0  0
   -3.7987   -0.7397   -2.7664 H   0  0  0  0  0  0  0  0  0  0  0  0
   -4.6738    0.3697   -0.7638 H   0  0  0  0  0  0  0  0  0  0  0  0
    2.5406   -0.7908    1.5682 H   0  0  0  0  0  0  0  0  0  0  0  0
  1  2  1  0
  2  3  1  0
  3  4  2  0
  4  5  1  0
  5  6  2  0
  6  7  1  0
  7  8  1  0
  8  9  1  0
  9 10  2  0
 10 11  1  0
 11 12  2  0
 12 13  1  0
 13 14  2  0
 14 15  1  0
 15 16  1  0
 15 17  2  0
 15 18  2  0
  6 19  1  0
 19  2  2  0
 14  9  1  0
  1 20  1  0
  1 21  1  0
  1 22  1  0
  3 23  1  0
  4 24  1  0
  5 25  1  0
  7 26  1  0
  7 27  1  0
  8 28  1  0
  8 29  1  0
 10 30  1  0
 11 31  1  0
 12 32  1  0
 13 33  1  0
 19 34  1  0
M  RAD  1  16   3
M  END
$$$$
