
     RDKit          3D

 34 35  0  0  0  0  0  0  0  0999 V2000
    2.8837   -0.2482   -1.8916 C   0  0  0  0  0  0  0  0  0  0  0  0
    2.2040    0.7260   -0.9760 C   0  0  0  0  0  0  0  0  0  0  0  0
    2.2893    2.1051   -1.2192 C   0  0  0  0  0  0  0  0  0  0  0  0
    1.6748    3.0115   -0.3513 C   0  0  0  0  0  0  0  0  0  0  0  0
    0.9787    2.5498    0.7687 C   0  0  0  0  0  0  0  0  0  0  0  0
    0.9050    1.1738    1.0377 C   0  0  0  0  0  0  0  0  0  0  0  0
    0.1290    0.6725    2.2283 C   0  0  0  0  0  0  0  0  0  0  0  0
   -1.3244    0.3231    1.8648 C   0  0  0  0  0  0  0  0  0  0  0  0
   -1.4159   -0.8857    0.9517 C   0  0  0  0  0  0  0  0  0  0  0  0
   -1.0418   -2.1357    1.4815 C   0  0  0  0  0  0  0  0  0  0  0  0
   -1.0476   -3.2812    0.6867 C   0  0  0  0  0  0  0  0  0  0  0  0
   -1.4347   -3.2015   -0.6480 C   0  0  0  0  0  0  0  0  0  0  0  0
   -1.8311   -1.9788   -1.1894 C   0  0  0  0  0  0  0  0  0  0  0  0
   -1.8364   -0.8113   -0.4057 C   0  0  0  0  0  0  0  0  0  0  0  0
   -2.4187    0.6905   -1.1466 S   0  0  0  0  0  0  0  0  0  0  0  0
   -3.8066    1.2600   -0.2895 N   0  0  0  0  0  1  0  0  0  0  0  0
   -1.3399    1.7341   -1.1184 O   0  0  0  0  0  0  0  0  0  0  0  0
   -2.8108    0.4491   -2.5774 O   0  0  0  0  0  0  0  0  0  0  0  0
    1.5282    0.2664    0.1645 C   0  0  0  0  0  0  0  0  0  0  0  0
    2.9499    0.1605   -2.9224 H   0  0  0  0  0  0  0  0  0  0  0  0
    2.3150   -1.2016   -1.9369 H   0  0  0  0  0  0  0  0  0  0  0  0
    3.9080   -0.4541   -1.5170 H   0  0  0  0  0  0  0  0  0  0  0  0
    2.8270    2.4783   -2.0820 H   0  0  0  0  0  0  0  0  0  0  0  0
    1.7340    4.0738   -0.5498 H   0  0  0  0  0  0  0  0  0  0  0  0
    0.4948    3.2637    1.4235 H   0  0  0  0  0  0  0  0  0  0  0  0
    0.1176    1.4529    3.0203 H   0  0  0  0  0  0  0  0  0  0  0  0
    0.6419   -0.2090    2.6700 H   0  0  0  0  0  0  0  0  0  0  0  0
   -1.8726    0.0912    2.8037 H   0  0  0  0  0  0  0  0  0  0  0  0
   -1.8167    1.2196    1.4427 H   0  0  0  0  0  0  0  0  0  0  0  0
   -0.7342   -2.2221    2.5164 H   0  0  0  0  0  0  0  0  0  0  0  0
   -0.7486   -4.2328    1.1069 H   0  0  0  0  0  0  0  0  0  0  0  0
   -1.4371   -4.0918   -1.2637 H   0  0  0  0  0  0  0  0  0  0  0  0
   -2.1418   -1.9510   -2.2253 H   0  0  0  0  0  0  0  0  0  0  0  0
    1.4780   -0.7970    0.3668 H   0  0  0  0  0  0  0  0  0  0  0  0
  1  2  1  0
  2  3  1  0
  3  4  2  0
  4  5  1  0
  5  6  2  0
  6  7  1  0
  7  8  1  0
  8  9  1  0
  9 10  2  0
 10 11  1  0
 11 12  2  0
 12 13  1  0
 13 14  2  0
 14 15  1  0
 15 16  1  0
 15 17  2  0
 15 18  2  0
  6 19  1  0
 19  2  2  0
 14  9  1  0
  1 20  1  0
  1 21  1  0
  1 22  1  0
  3 23  1  0
  4 24  1  0
  5 25  1  0
  7 26  1  0
  7 27  1  0
  8 28  1  0
  8 29  1  0
 10 30  1  0
 11 31  1  0
 12 32  1  0
 13 33  1  0
 19 34  1  0
M  RAD  1  16   3
M  END
$$$$
