
     RDKit          3D

 34 35  0  0  0  0  0  0  0  0999 V2000
    4.3037    2.0324   -0.5934 C   0  0  0  0  0  0  0  0  0  0  0  0
    3.6148    0.7814   -0.1346 C   0  0  0  0  0  0  0  0  0  0  0  0
    4.3228   -0.1913    0.5873 C   0  0  0  0  0  0  0  0  0  0  0  0
    3.6877   -1.3687    0.9907 C   0  0  0  0  0  0  0  0  0  0  0  0
    2.3481   -1.5917    0.6627 C   0  0  0  0  0  0  0  0  0  0  0  0
    1.6366   -0.6422   -0.0875 C   0  0  0  0  0  0  0  0  0  0  0  0
    0.1858   -0.8688   -0.4176 C   0  0  0  0  0  0  0  0  0  0  0  0
   -0.7124   -0.3035    0.6883 C   0  0  0  0  0  0  0  0  0  0  0  0
   -2.1725   -0.4766    0.3346 C   0  0  0  0  0  0  0  0  0  0  0  0
   -2.7626   -1.7317    0.5726 C   0  0  0  0  0  0  0  0  0  0  0  0
   -4.0973   -1.9673    0.2428 C   0  0  0  0  0  0  0  0  0  0  0  0
   -4.8622   -0.9561   -0.3338 C   0  0  0  0  0  0  0  0  0  0  0  0
   -4.2948    0.2935   -0.5859 C   0  0  0  0  0  0  0  0  0  0  0  0
   -2.9504    0.5507   -0.2655 C   0  0  0  0  0  0  0  0  0  0  0  0
   -2.2978    2.1649   -0.5998 S   0  0  0  0  0  0  0  0  0  0  0  0
   -1.9576    2.9717    0.8895 N   0  0  0  0  0  1  0  0  0  0  0  0
   -1.0418    2.0566   -1.4166 O   0  0  0  0  0  0  0  0  0  0  0  0
   -3.2970    2.9814   -1.3708 O   0  0  0  0  0  0  0  0  0  0  0  0
    2.2744    0.5464   -0.4793 C   0  0  0  0  0  0  0  0  0  0  0  0
    5.1116    2.3178    0.1137 H   0  0  0  0  0  0  0  0  0  0  0  0
    4.7447    1.8636   -1.5980 H   0  0  0  0  0  0  0  0  0  0  0  0
    3.5842    2.8768   -0.6506 H   0  0  0  0  0  0  0  0  0  0  0  0
    5.3639   -0.0360    0.8423 H   0  0  0  0  0  0  0  0  0  0  0  0
    4.2349   -2.1098    1.5590 H   0  0  0  0  0  0  0  0  0  0  0  0
    1.8663   -2.5047    0.9899 H   0  0  0  0  0  0  0  0  0  0  0  0
   -0.0068   -1.9579   -0.5360 H   0  0  0  0  0  0  0  0  0  0  0  0
   -0.0580   -0.3890   -1.3900 H   0  0  0  0  0  0  0  0  0  0  0  0
   -0.4994   -0.8398    1.6397 H   0  0  0  0  0  0  0  0  0  0  0  0
   -0.4627    0.7597    0.8761 H   0  0  0  0  0  0  0  0  0  0  0  0
   -2.1835   -2.5336    1.0145 H   0  0  0  0  0  0  0  0  0  0  0  0
   -4.5388   -2.9369    0.4338 H   0  0  0  0  0  0  0  0  0  0  0  0
   -5.8982   -1.1406   -0.5873 H   0  0  0  0  0  0  0  0  0  0  0  0
   -4.9129    1.0611   -1.0323 H   0  0  0  0  0  0  0  0  0  0  0  0
    1.7273    1.2882   -1.0490 H   0  0  0  0  0  0  0  0  0  0  0  0
  1  2  1  0
  2  3  1  0
  3  4  2  0
  4  5  1  0
  5  6  2  0
  6  7  1  0
  7  8  1  0
  8  9  1  0
  9 10  2  0
 10 11  1  0
 11 12  2  0
 12 13  1  0
 13 14  2  0
 14 15  1  0
 15 16  1  0
 15 17  2  0
 15 18  2  0
  6 19  1  0
 19  2  2  0
 14  9  1  0
  1 20  1  0
  1 21  1  0
  1 22  1  0
  3 23  1  0
  4 24  1  0
  5 25  1  0
  7 26  1  0
  7 27  1  0
  8 28  1  0
  8 29  1  0
 10 30  1  0
 11 31  1  0
 12 32  1  0
 13 33  1  0
 19 34  1  0
M  RAD  1  16   3
M  END
$$$$
