
     RDKit          3D

 34 35  0  0  0  0  0  0  0  0999 V2000
   -3.0646    0.3839    2.2712 C   0  0  0  0  0  0  0  0  0  0  0  0
   -2.7338    0.3481    0.8087 C   0  0  0  0  0  0  0  0  0  0  0  0
   -3.5189    1.0574   -0.1128 C   0  0  0  0  0  0  0  0  0  0  0  0
   -3.2220    1.0048   -1.4771 C   0  0  0  0  0  0  0  0  0  0  0  0
   -2.1487    0.2356   -1.9329 C   0  0  0  0  0  0  0  0  0  0  0  0
   -1.3700   -0.4997   -1.0256 C   0  0  0  0  0  0  0  0  0  0  0  0
   -0.1897   -1.3000   -1.5142 C   0  0  0  0  0  0  0  0  0  0  0  0
    1.0436   -0.4175   -1.7698 C   0  0  0  0  0  0  0  0  0  0  0  0
    1.6301    0.1326   -0.4848 C   0  0  0  0  0  0  0  0  0  0  0  0
    1.0806    1.3201    0.0355 C   0  0  0  0  0  0  0  0  0  0  0  0
    1.5292    1.8457    1.2464 C   0  0  0  0  0  0  0  0  0  0  0  0
    2.5397    1.2009    1.9542 C   0  0  0  0  0  0  0  0  0  0  0  0
    3.1124    0.0333    1.4492 C   0  0  0  0  0  0  0  0  0  0  0  0
    2.6744   -0.5158    0.2310 C   0  0  0  0  0  0  0  0  0  0  0  0
    3.5014   -1.9602   -0.3842 S   0  0  0  0  0  0  0  0  0  0  0  0
    2.3775   -3.2484   -0.6262 N   0  0  0  0  0  1  0  0  0  0  0  0
    4.5406   -2.4214    0.5992 O   0  0  0  0  0  0  0  0  0  0  0  0
    4.1851   -1.6339   -1.6819 O   0  0  0  0  0  0  0  0  0  0  0  0
   -1.6711   -0.4430    0.3458 C   0  0  0  0  0  0  0  0  0  0  0  0
   -3.7449   -0.4581    2.5165 H   0  0  0  0  0  0  0  0  0  0  0  0
   -2.1408    0.2942    2.8817 H   0  0  0  0  0  0  0  0  0  0  0  0
   -3.5609    1.3409    2.5395 H   0  0  0  0  0  0  0  0  0  0  0  0
   -4.3568    1.6547    0.2250 H   0  0  0  0  0  0  0  0  0  0  0  0
   -3.8239    1.5631   -2.1824 H   0  0  0  0  0  0  0  0  0  0  0  0
   -1.9231    0.2126   -2.9919 H   0  0  0  0  0  0  0  0  0  0  0  0
   -0.4666   -1.8096   -2.4627 H   0  0  0  0  0  0  0  0  0  0  0  0
    0.0562   -2.0994   -0.7845 H   0  0  0  0  0  0  0  0  0  0  0  0
    0.7653    0.4208   -2.4460 H   0  0  0  0  0  0  0  0  0  0  0  0
    1.7953   -1.0061   -2.3306 H   0  0  0  0  0  0  0  0  0  0  0  0
    0.2889    1.8360   -0.4941 H   0  0  0  0  0  0  0  0  0  0  0  0
    1.0896    2.7541    1.6376 H   0  0  0  0  0  0  0  0  0  0  0  0
    2.8871    1.6111    2.8937 H   0  0  0  0  0  0  0  0  0  0  0  0
    3.9072   -0.4362    2.0134 H   0  0  0  0  0  0  0  0  0  0  0  0
   -1.0685   -1.0007    1.0532 H   0  0  0  0  0  0  0  0  0  0  0  0
  1  2  1  0
  2  3  1  0
  3  4  2  0
  4  5  1  0
  5  6  2  0
  6  7  1  0
  7  8  1  0
  8  9  1  0
  9 10  2  0
 10 11  1  0
 11 12  2  0
 12 13  1  0
 13 14  2  0
 14 15  1  0
 15 16  1  0
 15 17  2  0
 15 18  2  0
  6 19  1  0
 19  2  2  0
 14  9  1  0
  1 20  1  0
  1 21  1  0
  1 22  1  0
  3 23  1  0
  4 24  1  0
  5 25  1  0
  7 26  1  0
  7 27  1  0
  8 28  1  0
  8 29  1  0
 10 30  1  0
 11 31  1  0
 12 32  1  0
 13 33  1  0
 19 34  1  0
M  RAD  1  16   3
M  END
$$$$
