
     RDKit          3D

 34 35  0  0  0  0  0  0  0  0999 V2000
    4.3900   -1.7955   -0.7872 C   0  0  0  0  0  0  0  0  0  0  0  0
    3.6287   -0.5050   -0.7166 C   0  0  0  0  0  0  0  0  0  0  0  0
    4.3006    0.6982   -0.4528 C   0  0  0  0  0  0  0  0  0  0  0  0
    3.5855    1.8934   -0.3413 C   0  0  0  0  0  0  0  0  0  0  0  0
    2.1956    1.8959   -0.4833 C   0  0  0  0  0  0  0  0  0  0  0  0
    1.5095    0.6993   -0.7438 C   0  0  0  0  0  0  0  0  0  0  0  0
    0.0081    0.6935   -0.8488 C   0  0  0  0  0  0  0  0  0  0  0  0
   -0.6272    0.4755    0.5291 C   0  0  0  0  0  0  0  0  0  0  0  0
   -2.1343    0.4122    0.4210 C   0  0  0  0  0  0  0  0  0  0  0  0
   -2.8402    1.6274    0.3484 C   0  0  0  0  0  0  0  0  0  0  0  0
   -4.2289    1.6398    0.2189 C   0  0  0  0  0  0  0  0  0  0  0  0
   -4.9342    0.4404    0.1548 C   0  0  0  0  0  0  0  0  0  0  0  0
   -4.2534   -0.7761    0.2169 C   0  0  0  0  0  0  0  0  0  0  0  0
   -2.8537   -0.8113    0.3429 C   0  0  0  0  0  0  0  0  0  0  0  0
   -2.0544   -2.3914    0.4302 S   0  0  0  0  0  0  0  0  0  0  0  0
   -1.3857   -2.6156    2.0073 N   0  0  0  0  0  1  0  0  0  0  0  0
   -3.0447   -3.4914    0.1679 O   0  0  0  0  0  0  0  0  0  0  0  0
   -0.9646   -2.4779   -0.6000 O   0  0  0  0  0  0  0  0  0  0  0  0
    2.2304   -0.5023   -0.8414 C   0  0  0  0  0  0  0  0  0  0  0  0
    4.4448   -2.2473    0.2252 H   0  0  0  0  0  0  0  0  0  0  0  0
    3.8883   -2.5085   -1.4757 H   0  0  0  0  0  0  0  0  0  0  0  0
    5.4208   -1.6231   -1.1636 H   0  0  0  0  0  0  0  0  0  0  0  0
    5.3765    0.7104   -0.3295 H   0  0  0  0  0  0  0  0  0  0  0  0
    4.1088    2.8185   -0.1371 H   0  0  0  0  0  0  0  0  0  0  0  0
    1.6535    2.8281   -0.3834 H   0  0  0  0  0  0  0  0  0  0  0  0
   -0.3166   -0.1056   -1.5497 H   0  0  0  0  0  0  0  0  0  0  0  0
   -0.3422    1.6599   -1.2739 H   0  0  0  0  0  0  0  0  0  0  0  0
   -0.3425    1.3177    1.1983 H   0  0  0  0  0  0  0  0  0  0  0  0
   -0.2142   -0.4391    0.9989 H   0  0  0  0  0  0  0  0  0  0  0  0
   -2.3101    2.5713    0.3902 H   0  0  0  0  0  0  0  0  0  0  0  0
   -4.7590    2.5820    0.1667 H   0  0  0  0  0  0  0  0  0  0  0  0
   -6.0120    0.4524    0.0561 H   0  0  0  0  0  0  0  0  0  0  0  0
   -4.8268   -1.6923    0.1673 H   0  0  0  0  0  0  0  0  0  0  0  0
    1.7036   -1.4336   -1.0126 H   0  0  0  0  0  0  0  0  0  0  0  0
  1  2  1  0
  2  3  1  0
  3  4  2  0
  4  5  1  0
  5  6  2  0
  6  7  1  0
  7  8  1  0
  8  9  1  0
  9 10  2  0
 10 11  1  0
 11 12  2  0
 12 13  1  0
 13 14  2  0
 14 15  1  0
 15 16  1  0
 15 17  2  0
 15 18  2  0
  6 19  1  0
 19  2  2  0
 14  9  1  0
  1 20  1  0
  1 21  1  0
  1 22  1  0
  3 23  1  0
  4 24  1  0
  5 25  1  0
  7 26  1  0
  7 27  1  0
  8 28  1  0
  8 29  1  0
 10 30  1  0
 11 31  1  0
 12 32  1  0
 13 33  1  0
 19 34  1  0
M  RAD  1  16   3
M  END
$$$$
