
     RDKit          3D

 34 35  0  0  0  0  0  0  0  0999 V2000
   -4.2615   -1.2648    1.8467 C   0  0  0  0  0  0  0  0  0  0  0  0
   -3.6144   -0.4655    0.7548 C   0  0  0  0  0  0  0  0  0  0  0  0
   -4.3401   -0.1251   -0.3967 C   0  0  0  0  0  0  0  0  0  0  0  0
   -3.7238    0.5797   -1.4339 C   0  0  0  0  0  0  0  0  0  0  0  0
   -2.3782    0.9419   -1.3340 C   0  0  0  0  0  0  0  0  0  0  0  0
   -1.6384    0.6050   -0.1896 C   0  0  0  0  0  0  0  0  0  0  0  0
   -0.1766    0.9523   -0.1021 C   0  0  0  0  0  0  0  0  0  0  0  0
    0.6805   -0.1731   -0.6922 C   0  0  0  0  0  0  0  0  0  0  0  0
    2.1525    0.1456   -0.5555 C   0  0  0  0  0  0  0  0  0  0  0  0
    2.7296    1.0089   -1.5051 C   0  0  0  0  0  0  0  0  0  0  0  0
    4.0752    1.3664   -1.4205 C   0  0  0  0  0  0  0  0  0  0  0  0
    4.8643    0.8723   -0.3845 C   0  0  0  0  0  0  0  0  0  0  0  0
    4.3104    0.0212    0.5725 C   0  0  0  0  0  0  0  0  0  0  0  0
    2.9555   -0.3481    0.5085 C   0  0  0  0  0  0  0  0  0  0  0  0
    2.3207   -1.4440    1.7493 S   0  0  0  0  0  0  0  0  0  0  0  0
    1.9260   -2.9649    1.0312 N   0  0  0  0  0  1  0  0  0  0  0  0
    3.3510   -1.6715    2.8199 O   0  0  0  0  0  0  0  0  0  0  0  0
    1.0966   -0.8507    2.3866 O   0  0  0  0  0  0  0  0  0  0  0  0
   -2.2579   -0.1155    0.8449 C   0  0  0  0  0  0  0  0  0  0  0  0
   -3.8118   -1.0173    2.8319 H   0  0  0  0  0  0  0  0  0  0  0  0
   -4.1195   -2.3471    1.6454 H   0  0  0  0  0  0  0  0  0  0  0  0
   -5.3492   -1.0459    1.9015 H   0  0  0  0  0  0  0  0  0  0  0  0
   -5.3810   -0.4084   -0.4932 H   0  0  0  0  0  0  0  0  0  0  0  0
   -4.2882    0.8391   -2.3203 H   0  0  0  0  0  0  0  0  0  0  0  0
   -1.9108    1.4783   -2.1507 H   0  0  0  0  0  0  0  0  0  0  0  0
    0.1045    1.1305    0.9583 H   0  0  0  0  0  0  0  0  0  0  0  0
    0.0178    1.8991   -0.6527 H   0  0  0  0  0  0  0  0  0  0  0  0
    0.4268   -1.1382   -0.2105 H   0  0  0  0  0  0  0  0  0  0  0  0
    0.4301   -0.2944   -1.7695 H   0  0  0  0  0  0  0  0  0  0  0  0
    2.1319    1.4093   -2.3151 H   0  0  0  0  0  0  0  0  0  0  0  0
    4.5063    2.0295   -2.1594 H   0  0  0  0  0  0  0  0  0  0  0  0
    5.9087    1.1496   -0.3218 H   0  0  0  0  0  0  0  0  0  0  0  0
    4.9473   -0.3496    1.3648 H   0  0  0  0  0  0  0  0  0  0  0  0
   -1.6844   -0.4046    1.7177 H   0  0  0  0  0  0  0  0  0  0  0  0
  1  2  1  0
  2  3  1  0
  3  4  2  0
  4  5  1  0
  5  6  2  0
  6  7  1  0
  7  8  1  0
  8  9  1  0
  9 10  2  0
 10 11  1  0
 11 12  2  0
 12 13  1  0
 13 14  2  0
 14 15  1  0
 15 16  1  0
 15 17  2  0
 15 18  2  0
  6 19  1  0
 19  2  2  0
 14  9  1  0
  1 20  1  0
  1 21  1  0
  1 22  1  0
  3 23  1  0
  4 24  1  0
  5 25  1  0
  7 26  1  0
  7 27  1  0
  8 28  1  0
  8 29  1  0
 10 30  1  0
 11 31  1  0
 12 32  1  0
 13 33  1  0
 19 34  1  0
M  RAD  1  16   3
M  END
$$$$
