
     RDKit          3D

 28 29  0  0  0  0  0  0  0  0999 V2000
   -2.0395   -2.1279   -1.0904 N   0  0  0  0  0  1  0  0  0  0  0  0
   -2.6455   -1.0298   -0.4117 C   0  0  0  0  0  0  0  0  0  0  0  0
   -4.0213   -0.8135   -0.5560 C   0  0  0  0  0  0  0  0  0  0  0  0
   -4.6358    0.2642    0.0862 C   0  0  0  0  0  0  0  0  0  0  0  0
   -3.8778    1.1342    0.8722 C   0  0  0  0  0  0  0  0  0  0  0  0
   -2.5041    0.9263    1.0224 C   0  0  0  0  0  0  0  0  0  0  0  0
   -1.8758   -0.1631    0.3939 C   0  0  0  0  0  0  0  0  0  0  0  0
   -0.3858   -0.3488    0.5437 C   0  0  0  0  0  0  0  0  0  0  0  0
    0.3626    0.3572   -0.5909 C   0  0  0  0  0  0  0  0  0  0  0  0
    1.8483    0.1681   -0.4428 C   0  0  0  0  0  0  0  0  0  0  0  0
    2.4808   -0.9485   -1.0146 C   0  0  0  0  0  0  0  0  0  0  0  0
    3.8560   -1.1405   -0.8484 C   0  0  0  0  0  0  0  0  0  0  0  0
    4.6064   -0.2262   -0.1033 C   0  0  0  0  0  0  0  0  0  0  0  0
    5.9393   -0.4150    0.0581 F   0  0  0  0  0  0  0  0  0  0  0  0
    3.9812    0.8796    0.4804 C   0  0  0  0  0  0  0  0  0  0  0  0
    2.6063    1.0752    0.3165 C   0  0  0  0  0  0  0  0  0  0  0  0
   -4.6150   -1.4791   -1.1700 H   0  0  0  0  0  0  0  0  0  0  0  0
   -5.6994    0.4278   -0.0298 H   0  0  0  0  0  0  0  0  0  0  0  0
   -4.3545    1.9729    1.3631 H   0  0  0  0  0  0  0  0  0  0  0  0
   -1.9291    1.6161    1.6280 H   0  0  0  0  0  0  0  0  0  0  0  0
   -0.0507    0.0625    1.5218 H   0  0  0  0  0  0  0  0  0  0  0  0
   -0.1343   -1.4319    0.5474 H   0  0  0  0  0  0  0  0  0  0  0  0
    0.1184    1.4426   -0.5819 H   0  0  0  0  0  0  0  0  0  0  0  0
    0.0289   -0.0478   -1.5717 H   0  0  0  0  0  0  0  0  0  0  0  0
    1.9091   -1.6692   -1.5862 H   0  0  0  0  0  0  0  0  0  0  0  0
    4.3383   -2.0006   -1.2949 H   0  0  0  0  0  0  0  0  0  0  0  0
    4.5605    1.5843    1.0631 H   0  0  0  0  0  0  0  0  0  0  0  0
    2.1324    1.9308    0.7817 H   0  0  0  0  0  0  0  0  0  0  0  0
  1  2  1  0
  2  3  2  0
  3  4  1  0
  4  5  2  0
  5  6  1  0
  6  7  2  0
  7  8  1  0
  8  9  1  0
  9 10  1  0
 10 11  1  0
 11 12  2  0
 12 13  1  0
 13 14  1  0
 13 15  2  0
 15 16  1  0
  7  2  1  0
 16 10  2  0
  3 17  1  0
  4 18  1  0
  5 19  1  0
  6 20  1  0
  8 21  1  0
  8 22  1  0
  9 23  1  0
  9 24  1  0
 11 25  1  0
 12 26  1  0
 15 27  1  0
 16 28  1  0
M  RAD  1   1   3
M  END
$$$$
