
     RDKit          3D

 28 29  0  0  0  0  0  0  0  0999 V2000
   -2.6221   -0.7902   -2.3354 N   0  0  0  0  0  1  0  0  0  0  0  0
   -2.4496   -0.1495   -1.0733 C   0  0  0  0  0  0  0  0  0  0  0  0
   -3.1880    1.0051   -0.7872 C   0  0  0  0  0  0  0  0  0  0  0  0
   -3.0287    1.6574    0.4377 C   0  0  0  0  0  0  0  0  0  0  0  0
   -2.1299    1.1599    1.3830 C   0  0  0  0  0  0  0  0  0  0  0  0
   -1.3900    0.0072    1.1074 C   0  0  0  0  0  0  0  0  0  0  0  0
   -1.5455   -0.6631   -0.1191 C   0  0  0  0  0  0  0  0  0  0  0  0
   -0.6998   -1.8805   -0.4153 C   0  0  0  0  0  0  0  0  0  0  0  0
    0.5370   -1.5279   -1.2539 C   0  0  0  0  0  0  0  0  0  0  0  0
    1.4743   -0.6106   -0.5105 C   0  0  0  0  0  0  0  0  0  0  0  0
    2.3581   -1.1298    0.4500 C   0  0  0  0  0  0  0  0  0  0  0  0
    3.1959   -0.2739    1.1717 C   0  0  0  0  0  0  0  0  0  0  0  0
    3.1521    1.1049    0.9455 C   0  0  0  0  0  0  0  0  0  0  0  0
    3.9627    1.9334    1.6488 F   0  0  0  0  0  0  0  0  0  0  0  0
    2.2688    1.6299   -0.0022 C   0  0  0  0  0  0  0  0  0  0  0  0
    1.4306    0.7773   -0.7270 C   0  0  0  0  0  0  0  0  0  0  0  0
   -3.8838    1.4003   -1.5167 H   0  0  0  0  0  0  0  0  0  0  0  0
   -3.6000    2.5512    0.6528 H   0  0  0  0  0  0  0  0  0  0  0  0
   -2.0030    1.6702    2.3290 H   0  0  0  0  0  0  0  0  0  0  0  0
   -0.6876   -0.3576    1.8468 H   0  0  0  0  0  0  0  0  0  0  0  0
   -1.3072   -2.6314   -0.9650 H   0  0  0  0  0  0  0  0  0  0  0  0
   -0.3805   -2.3710    0.5307 H   0  0  0  0  0  0  0  0  0  0  0  0
    0.2225   -1.0658   -2.2152 H   0  0  0  0  0  0  0  0  0  0  0  0
    1.0734   -2.4667   -1.5128 H   0  0  0  0  0  0  0  0  0  0  0  0
    2.3935   -2.1950    0.6422 H   0  0  0  0  0  0  0  0  0  0  0  0
    3.8756   -0.6804    1.9095 H   0  0  0  0  0  0  0  0  0  0  0  0
    2.2295    2.6980   -0.1730 H   0  0  0  0  0  0  0  0  0  0  0  0
    0.7415    1.1986   -1.4485 H   0  0  0  0  0  0  0  0  0  0  0  0
  1  2  1  0
  2  3  2  0
  3  4  1  0
  4  5  2  0
  5  6  1  0
  6  7  2  0
  7  8  1  0
  8  9  1  0
  9 10  1  0
 10 11  1  0
 11 12  2  0
 12 13  1  0
 13 14  1  0
 13 15  2  0
 15 16  1  0
  7  2  1  0
 16 10  2  0
  3 17  1  0
  4 18  1  0
  5 19  1  0
  6 20  1  0
  8 21  1  0
  8 22  1  0
  9 23  1  0
  9 24  1  0
 11 25  1  0
 12 26  1  0
 15 27  1  0
 16 28  1  0
M  RAD  1   1   3
M  END
$$$$
