
     RDKit          3D

 28 29  0  0  0  0  0  0  0  0999 V2000
   -2.0481   -2.3661    0.2682 N   0  0  0  0  0  1  0  0  0  0  0  0
   -2.6532   -1.0790    0.1640 C   0  0  0  0  0  0  0  0  0  0  0  0
   -4.0103   -0.9877   -0.1685 C   0  0  0  0  0  0  0  0  0  0  0  0
   -4.6225    0.2618   -0.2917 C   0  0  0  0  0  0  0  0  0  0  0  0
   -3.8807    1.4270   -0.0880 C   0  0  0  0  0  0  0  0  0  0  0  0
   -2.5257    1.3459    0.2444 C   0  0  0  0  0  0  0  0  0  0  0  0
   -1.9009    0.0945    0.3864 C   0  0  0  0  0  0  0  0  0  0  0  0
   -0.4292    0.0320    0.7137 C   0  0  0  0  0  0  0  0  0  0  0  0
    0.4065   -0.0272   -0.5685 C   0  0  0  0  0  0  0  0  0  0  0  0
    1.8739   -0.0934   -0.2410 C   0  0  0  0  0  0  0  0  0  0  0  0
    2.4989   -1.3350   -0.0368 C   0  0  0  0  0  0  0  0  0  0  0  0
    3.8549   -1.3938    0.2999 C   0  0  0  0  0  0  0  0  0  0  0  0
    4.5930   -0.2153    0.4445 C   0  0  0  0  0  0  0  0  0  0  0  0
    5.9072   -0.2743    0.7725 F   0  0  0  0  0  0  0  0  0  0  0  0
    3.9743    1.0241    0.2566 C   0  0  0  0  0  0  0  0  0  0  0  0
    2.6184    1.0871   -0.0801 C   0  0  0  0  0  0  0  0  0  0  0  0
   -4.5909   -1.8863   -0.3357 H   0  0  0  0  0  0  0  0  0  0  0  0
   -5.6715    0.3270   -0.5504 H   0  0  0  0  0  0  0  0  0  0  0  0
   -4.3550    2.3944   -0.1911 H   0  0  0  0  0  0  0  0  0  0  0  0
   -1.9624    2.2596    0.3897 H   0  0  0  0  0  0  0  0  0  0  0  0
   -0.1361    0.9266    1.3069 H   0  0  0  0  0  0  0  0  0  0  0  0
   -0.2160   -0.8571    1.3464 H   0  0  0  0  0  0  0  0  0  0  0  0
    0.1999    0.8710   -1.1917 H   0  0  0  0  0  0  0  0  0  0  0  0
    0.1152   -0.9183   -1.1673 H   0  0  0  0  0  0  0  0  0  0  0  0
    1.9361   -2.2549   -0.1365 H   0  0  0  0  0  0  0  0  0  0  0  0
    4.3318   -2.3536    0.4519 H   0  0  0  0  0  0  0  0  0  0  0  0
    4.5436    1.9371    0.3750 H   0  0  0  0  0  0  0  0  0  0  0  0
    2.1488    2.0538   -0.2137 H   0  0  0  0  0  0  0  0  0  0  0  0
  1  2  1  0
  2  3  2  0
  3  4  1  0
  4  5  2  0
  5  6  1  0
  6  7  2  0
  7  8  1  0
  8  9  1  0
  9 10  1  0
 10 11  1  0
 11 12  2  0
 12 13  1  0
 13 14  1  0
 13 15  2  0
 15 16  1  0
  7  2  1  0
 16 10  2  0
  3 17  1  0
  4 18  1  0
  5 19  1  0
  6 20  1  0
  8 21  1  0
  8 22  1  0
  9 23  1  0
  9 24  1  0
 11 25  1  0
 12 26  1  0
 15 27  1  0
 16 28  1  0
M  RAD  1   1   3
M  END
$$$$
