
     RDKit          3D

 28 29  0  0  0  0  0  0  0  0999 V2000
   -2.1882   -0.3859   -2.6261 N   0  0  0  0  0  1  0  0  0  0  0  0
   -2.2516   -0.0362   -1.2451 C   0  0  0  0  0  0  0  0  0  0  0  0
   -3.1204    0.9835   -0.8382 C   0  0  0  0  0  0  0  0  0  0  0  0
   -3.1925    1.3521    0.5072 C   0  0  0  0  0  0  0  0  0  0  0  0
   -2.3961    0.7042    1.4532 C   0  0  0  0  0  0  0  0  0  0  0  0
   -1.5275   -0.3159    1.0571 C   0  0  0  0  0  0  0  0  0  0  0  0
   -1.4498   -0.7014   -0.2931 C   0  0  0  0  0  0  0  0  0  0  0  0
   -0.4683   -1.7742   -0.7063 C   0  0  0  0  0  0  0  0  0  0  0  0
    0.8390   -1.1768   -1.2461 C   0  0  0  0  0  0  0  0  0  0  0  0
    1.5789   -0.4006   -0.1864 C   0  0  0  0  0  0  0  0  0  0  0  0
    1.4458    0.9961   -0.1057 C   0  0  0  0  0  0  0  0  0  0  0  0
    2.0963    1.7081    0.9066 C   0  0  0  0  0  0  0  0  0  0  0  0
    2.8795    1.0322    1.8467 C   0  0  0  0  0  0  0  0  0  0  0  0
    3.5078    1.7242    2.8288 F   0  0  0  0  0  0  0  0  0  0  0  0
    3.0105   -0.3579    1.7772 C   0  0  0  0  0  0  0  0  0  0  0  0
    2.3603   -1.0737    0.7672 C   0  0  0  0  0  0  0  0  0  0  0  0
   -3.7381    1.4944   -1.5662 H   0  0  0  0  0  0  0  0  0  0  0  0
   -3.8639    2.1429    0.8161 H   0  0  0  0  0  0  0  0  0  0  0  0
   -2.4486    0.9955    2.4943 H   0  0  0  0  0  0  0  0  0  0  0  0
   -0.9073   -0.7990    1.8021 H   0  0  0  0  0  0  0  0  0  0  0  0
   -0.2441   -2.4465    0.1511 H   0  0  0  0  0  0  0  0  0  0  0  0
   -0.9247   -2.4142   -1.4919 H   0  0  0  0  0  0  0  0  0  0  0  0
    0.6241   -0.5283   -2.1235 H   0  0  0  0  0  0  0  0  0  0  0  0
    1.4859   -2.0034   -1.6122 H   0  0  0  0  0  0  0  0  0  0  0  0
    0.8312    1.5309   -0.8193 H   0  0  0  0  0  0  0  0  0  0  0  0
    1.9888    2.7837    0.9639 H   0  0  0  0  0  0  0  0  0  0  0  0
    3.6122   -0.8823    2.5082 H   0  0  0  0  0  0  0  0  0  0  0  0
    2.4606   -2.1514    0.7306 H   0  0  0  0  0  0  0  0  0  0  0  0
  1  2  1  0
  2  3  2  0
  3  4  1  0
  4  5  2  0
  5  6  1  0
  6  7  2  0
  7  8  1  0
  8  9  1  0
  9 10  1  0
 10 11  1  0
 11 12  2  0
 12 13  1  0
 13 14  1  0
 13 15  2  0
 15 16  1  0
  7  2  1  0
 16 10  2  0
  3 17  1  0
  4 18  1  0
  5 19  1  0
  6 20  1  0
  8 21  1  0
  8 22  1  0
  9 23  1  0
  9 24  1  0
 11 25  1  0
 12 26  1  0
 15 27  1  0
 16 28  1  0
M  RAD  1   1   3
M  END
$$$$
