
     RDKit          3D

 28 29  0  0  0  0  0  0  0  0999 V2000
    2.5866   -0.0189   -2.5027 N   0  0  0  0  0  1  0  0  0  0  0  0
    2.4296    0.2212   -1.1059 C   0  0  0  0  0  0  0  0  0  0  0  0
    3.1557    1.2568   -0.5053 C   0  0  0  0  0  0  0  0  0  0  0  0
    3.0110    1.5191    0.8590 C   0  0  0  0  0  0  0  0  0  0  0  0
    2.1390    0.7486    1.6304 C   0  0  0  0  0  0  0  0  0  0  0  0
    1.4117   -0.2882    1.0405 C   0  0  0  0  0  0  0  0  0  0  0  0
    1.5528   -0.5673   -0.3306 C   0  0  0  0  0  0  0  0  0  0  0  0
    0.7202   -1.6621   -0.9576 C   0  0  0  0  0  0  0  0  0  0  0  0
   -0.5385   -1.1054   -1.6381 C   0  0  0  0  0  0  0  0  0  0  0  0
   -1.4747   -0.4649   -0.6451 C   0  0  0  0  0  0  0  0  0  0  0  0
   -2.3309   -1.2603    0.1343 C   0  0  0  0  0  0  0  0  0  0  0  0
   -3.1671   -0.6702    1.0871 C   0  0  0  0  0  0  0  0  0  0  0  0
   -3.1491    0.7151    1.2737 C   0  0  0  0  0  0  0  0  0  0  0  0
   -3.9581    1.2850    2.2004 F   0  0  0  0  0  0  0  0  0  0  0  0
   -2.2932    1.5122    0.5081 C   0  0  0  0  0  0  0  0  0  0  0  0
   -1.4567    0.9262   -0.4467 C   0  0  0  0  0  0  0  0  0  0  0  0
    3.8306    1.8622   -1.0974 H   0  0  0  0  0  0  0  0  0  0  0  0
    3.5726    2.3225    1.3178 H   0  0  0  0  0  0  0  0  0  0  0  0
    2.0233    0.9574    2.6861 H   0  0  0  0  0  0  0  0  0  0  0  0
    0.7299   -0.8676    1.6509 H   0  0  0  0  0  0  0  0  0  0  0  0
    0.4275   -2.4142   -0.1920 H   0  0  0  0  0  0  0  0  0  0  0  0
    1.3280   -2.2069   -1.7118 H   0  0  0  0  0  0  0  0  0  0  0  0
   -1.0654   -1.9384   -2.1524 H   0  0  0  0  0  0  0  0  0  0  0  0
   -0.2505   -0.3761   -2.4266 H   0  0  0  0  0  0  0  0  0  0  0  0
   -2.3460   -2.3356    0.0069 H   0  0  0  0  0  0  0  0  0  0  0  0
   -3.8256   -1.2885    1.6836 H   0  0  0  0  0  0  0  0  0  0  0  0
   -2.2738    2.5842    0.6568 H   0  0  0  0  0  0  0  0  0  0  0  0
   -0.7888    1.5541   -1.0233 H   0  0  0  0  0  0  0  0  0  0  0  0
  1  2  1  0
  2  3  2  0
  3  4  1  0
  4  5  2  0
  5  6  1  0
  6  7  2  0
  7  8  1  0
  8  9  1  0
  9 10  1  0
 10 11  1  0
 11 12  2  0
 12 13  1  0
 13 14  1  0
 13 15  2  0
 15 16  1  0
  7  2  1  0
 16 10  2  0
  3 17  1  0
  4 18  1  0
  5 19  1  0
  6 20  1  0
  8 21  1  0
  8 22  1  0
  9 23  1  0
  9 24  1  0
 11 25  1  0
 12 26  1  0
 15 27  1  0
 16 28  1  0
M  RAD  1   1   3
M  END
$$$$
