
     RDKit          3D

 28 29  0  0  0  0  0  0  0  0999 V2000
   -1.9996    2.3952    0.2955 N   0  0  0  0  0  1  0  0  0  0  0  0
   -2.6307    1.1260    0.1387 C   0  0  0  0  0  0  0  0  0  0  0  0
   -3.9910    1.0761   -0.1891 C   0  0  0  0  0  0  0  0  0  0  0  0
   -4.6287   -0.1545   -0.3631 C   0  0  0  0  0  0  0  0  0  0  0  0
   -3.9091   -1.3418   -0.2152 C   0  0  0  0  0  0  0  0  0  0  0  0
   -2.5511   -1.3021    0.1120 C   0  0  0  0  0  0  0  0  0  0  0  0
   -1.9008   -0.0707    0.3049 C   0  0  0  0  0  0  0  0  0  0  0  0
   -0.4264   -0.0515    0.6255 C   0  0  0  0  0  0  0  0  0  0  0  0
    0.4035    0.0477   -0.6580 C   0  0  0  0  0  0  0  0  0  0  0  0
    1.8737    0.0705   -0.3369 C   0  0  0  0  0  0  0  0  0  0  0  0
    2.5243    1.2893   -0.0818 C   0  0  0  0  0  0  0  0  0  0  0  0
    3.8830    1.3066    0.2487 C   0  0  0  0  0  0  0  0  0  0  0  0
    4.5983    0.1087    0.3365 C   0  0  0  0  0  0  0  0  0  0  0  0
    5.9151    0.1273    0.6586 F   0  0  0  0  0  0  0  0  0  0  0  0
    3.9541   -1.1089    0.0977 C   0  0  0  0  0  0  0  0  0  0  0  0
    2.5955   -1.1303   -0.2331 C   0  0  0  0  0  0  0  0  0  0  0  0
   -4.5546    1.9924   -0.3132 H   0  0  0  0  0  0  0  0  0  0  0  0
   -5.6801   -0.1876   -0.6179 H   0  0  0  0  0  0  0  0  0  0  0  0
   -4.4032   -2.2943   -0.3576 H   0  0  0  0  0  0  0  0  0  0  0  0
   -2.0054   -2.2322    0.2138 H   0  0  0  0  0  0  0  0  0  0  0  0
   -0.1922    0.8045    1.2954 H   0  0  0  0  0  0  0  0  0  0  0  0
   -0.1480   -0.9770    1.1770 H   0  0  0  0  0  0  0  0  0  0  0  0
    0.1758   -0.8179   -1.3188 H   0  0  0  0  0  0  0  0  0  0  0  0
    0.1269    0.9698   -1.2152 H   0  0  0  0  0  0  0  0  0  0  0  0
    1.9792    2.2236   -0.1373 H   0  0  0  0  0  0  0  0  0  0  0  0
    4.3796    2.2492    0.4401 H   0  0  0  0  0  0  0  0  0  0  0  0
    4.5058   -2.0372    0.1721 H   0  0  0  0  0  0  0  0  0  0  0  0
    2.1061   -2.0808   -0.4064 H   0  0  0  0  0  0  0  0  0  0  0  0
  1  2  1  0
  2  3  2  0
  3  4  1  0
  4  5  2  0
  5  6  1  0
  6  7  2  0
  7  8  1  0
  8  9  1  0
  9 10  1  0
 10 11  1  0
 11 12  2  0
 12 13  1  0
 13 14  1  0
 13 15  2  0
 15 16  1  0
  7  2  1  0
 16 10  2  0
  3 17  1  0
  4 18  1  0
  5 19  1  0
  6 20  1  0
  8 21  1  0
  8 22  1  0
  9 23  1  0
  9 24  1  0
 11 25  1  0
 12 26  1  0
 15 27  1  0
 16 28  1  0
M  RAD  1   1   3
M  END
$$$$
