
     RDKit          3D

 31 33  0  0  0  0  0  0  0  0999 V2000
   -3.6385   -1.0506    1.8859 N   0  0  0  0  0  1  0  0  0  0  0  0
   -3.1672   -0.1413    0.8937 C   0  0  0  0  0  0  0  0  0  0  0  0
   -3.6053    1.1882    0.9228 C   0  0  0  0  0  0  0  0  0  0  0  0
   -3.1490    2.1011   -0.0309 C   0  0  0  0  0  0  0  0  0  0  0  0
   -2.2515    1.6906   -1.0184 C   0  0  0  0  0  0  0  0  0  0  0  0
   -1.8104    0.3655   -1.0569 C   0  0  0  0  0  0  0  0  0  0  0  0
   -2.2671   -0.5657   -0.1070 C   0  0  0  0  0  0  0  0  0  0  0  0
   -1.7393   -1.9821   -0.1383 C   0  0  0  0  0  0  0  0  0  0  0  0
   -0.5782   -2.1797    0.8444 C   0  0  0  0  0  0  0  0  0  0  0  0
    0.6084   -1.3485    0.4631 C   0  0  0  0  0  0  0  0  0  0  0  0
    0.9374   -0.1131    1.0155 C   0  0  0  0  0  0  0  0  0  0  0  0
    2.0587    0.2776    0.3223 C   0  0  0  0  0  0  0  0  0  0  0  0
    2.8374    1.4283    0.4203 C   0  0  0  0  0  0  0  0  0  0  0  0
    3.9396    1.5476   -0.4466 C   0  0  0  0  0  0  0  0  0  0  0  0
    4.2305    0.5263   -1.3795 C   0  0  0  0  0  0  0  0  0  0  0  0
    3.4211   -0.6229   -1.4542 C   0  0  0  0  0  0  0  0  0  0  0  0
    2.3378   -0.7120   -0.5832 C   0  0  0  0  0  0  0  0  0  0  0  0
    1.4605   -1.6807   -0.4904 O   0  0  0  0  0  0  0  0  0  0  0  0
   -4.2975    1.5160    1.6883 H   0  0  0  0  0  0  0  0  0  0  0  0
   -3.4886    3.1284   -0.0023 H   0  0  0  0  0  0  0  0  0  0  0  0
   -1.8938    2.4008   -1.7526 H   0  0  0  0  0  0  0  0  0  0  0  0
   -1.1041    0.0671   -1.8220 H   0  0  0  0  0  0  0  0  0  0  0  0
   -1.4058   -2.2498   -1.1655 H   0  0  0  0  0  0  0  0  0  0  0  0
   -2.5557   -2.6907    0.1191 H   0  0  0  0  0  0  0  0  0  0  0  0
   -0.2786   -3.2493    0.8383 H   0  0  0  0  0  0  0  0  0  0  0  0
   -0.9032   -1.9277    1.8772 H   0  0  0  0  0  0  0  0  0  0  0  0
    0.4179    0.4254    1.7974 H   0  0  0  0  0  0  0  0  0  0  0  0
    2.6040    2.2047    1.1375 H   0  0  0  0  0  0  0  0  0  0  0  0
    4.5679    2.4275   -0.3989 H   0  0  0  0  0  0  0  0  0  0  0  0
    5.0803    0.6288   -2.0417 H   0  0  0  0  0  0  0  0  0  0  0  0
    3.6321   -1.4100   -2.1661 H   0  0  0  0  0  0  0  0  0  0  0  0
  1  2  1  0
  2  3  2  0
  3  4  1  0
  4  5  2  0
  5  6  1  0
  6  7  2  0
  7  8  1  0
  8  9  1  0
  9 10  1  0
 10 11  2  0
 11 12  1  0
 12 13  2  0
 13 14  1  0
 14 15  2  0
 15 16  1  0
 16 17  2  0
 17 18  1  0
  7  2  1  0
 17 12  1  0
 18 10  1  0
  3 19  1  0
  4 20  1  0
  5 21  1  0
  6 22  1  0
  8 23  1  0
  8 24  1  0
  9 25  1  0
  9 26  1  0
 11 27  1  0
 13 28  1  0
 14 29  1  0
 15 30  1  0
 16 31  1  0
M  RAD  1   1   3
M  END
$$$$
