
     RDKit          3D

 31 33  0  0  0  0  0  0  0  0999 V2000
   -3.0971   -2.9207    0.2324 N   0  0  0  0  0  1  0  0  0  0  0  0
   -2.8513   -1.6002   -0.2463 C   0  0  0  0  0  0  0  0  0  0  0  0
   -3.2333   -1.2648   -1.5509 C   0  0  0  0  0  0  0  0  0  0  0  0
   -2.9928    0.0186   -2.0472 C   0  0  0  0  0  0  0  0  0  0  0  0
   -2.3682    0.9735   -1.2427 C   0  0  0  0  0  0  0  0  0  0  0  0
   -1.9855    0.6489    0.0612 C   0  0  0  0  0  0  0  0  0  0  0  0
   -2.2278   -0.6374    0.5758 C   0  0  0  0  0  0  0  0  0  0  0  0
   -1.7616   -0.9813    1.9723 C   0  0  0  0  0  0  0  0  0  0  0  0
   -0.4056   -1.6982    1.9603 C   0  0  0  0  0  0  0  0  0  0  0  0
    0.6782   -0.8093    1.4315 C   0  0  0  0  0  0  0  0  0  0  0  0
    1.1631   -0.8198    0.1259 C   0  0  0  0  0  0  0  0  0  0  0  0
    2.0970    0.1891    0.1057 C   0  0  0  0  0  0  0  0  0  0  0  0
    2.9078    0.6616   -0.9236 C   0  0  0  0  0  0  0  0  0  0  0  0
    3.7744    1.7321   -0.6342 C   0  0  0  0  0  0  0  0  0  0  0  0
    3.8065    2.2971    0.6611 C   0  0  0  0  0  0  0  0  0  0  0  0
    2.9715    1.7971    1.6780 C   0  0  0  0  0  0  0  0  0  0  0  0
    2.1251    0.7374    1.3609 C   0  0  0  0  0  0  0  0  0  0  0  0
    1.2690    0.1316    2.1464 O   0  0  0  0  0  0  0  0  0  0  0  0
   -3.7138   -2.0010   -2.1831 H   0  0  0  0  0  0  0  0  0  0  0  0
   -3.2875    0.2719   -3.0573 H   0  0  0  0  0  0  0  0  0  0  0  0
   -2.1766    1.9654   -1.6311 H   0  0  0  0  0  0  0  0  0  0  0  0
   -1.4904    1.3978    0.6670 H   0  0  0  0  0  0  0  0  0  0  0  0
   -2.5122   -1.6353    2.4661 H   0  0  0  0  0  0  0  0  0  0  0  0
   -1.6901   -0.0623    2.5953 H   0  0  0  0  0  0  0  0  0  0  0  0
   -0.1455   -1.9953    2.9986 H   0  0  0  0  0  0  0  0  0  0  0  0
   -0.4679   -2.6259    1.3510 H   0  0  0  0  0  0  0  0  0  0  0  0
    0.8598   -1.4616   -0.6911 H   0  0  0  0  0  0  0  0  0  0  0  0
    2.8734    0.2222   -1.9122 H   0  0  0  0  0  0  0  0  0  0  0  0
    4.4197    2.1255   -1.4087 H   0  0  0  0  0  0  0  0  0  0  0  0
    4.4764    3.1204    0.8723 H   0  0  0  0  0  0  0  0  0  0  0  0
    2.9851    2.2233    2.6726 H   0  0  0  0  0  0  0  0  0  0  0  0
  1  2  1  0
  2  3  2  0
  3  4  1  0
  4  5  2  0
  5  6  1  0
  6  7  2  0
  7  8  1  0
  8  9  1  0
  9 10  1  0
 10 11  2  0
 11 12  1  0
 12 13  2  0
 13 14  1  0
 14 15  2  0
 15 16  1  0
 16 17  2  0
 17 18  1  0
  7  2  1  0
 17 12  1  0
 18 10  1  0
  3 19  1  0
  4 20  1  0
  5 21  1  0
  6 22  1  0
  8 23  1  0
  8 24  1  0
  9 25  1  0
  9 26  1  0
 11 27  1  0
 13 28  1  0
 14 29  1  0
 15 30  1  0
 16 31  1  0
M  RAD  1   1   3
M  END
$$$$
