
     RDKit          3D

 31 33  0  0  0  0  0  0  0  0999 V2000
   -3.4182    1.0377   -2.1784 N   0  0  0  0  0  1  0  0  0  0  0  0
   -3.0993    0.3456   -0.9732 C   0  0  0  0  0  0  0  0  0  0  0  0
   -3.7295   -0.8743   -0.6992 C   0  0  0  0  0  0  0  0  0  0  0  0
   -3.4255   -1.5773    0.4689 C   0  0  0  0  0  0  0  0  0  0  0  0
   -2.4891   -1.0656    1.3691 C   0  0  0  0  0  0  0  0  0  0  0  0
   -1.8566    0.1520    1.1055 C   0  0  0  0  0  0  0  0  0  0  0  0
   -2.1584    0.8735   -0.0634 C   0  0  0  0  0  0  0  0  0  0  0  0
   -1.4265    2.1646   -0.3521 C   0  0  0  0  0  0  0  0  0  0  0  0
   -0.2372    1.9469   -1.2959 C   0  0  0  0  0  0  0  0  0  0  0  0
    0.8082    1.0775   -0.6668 C   0  0  0  0  0  0  0  0  0  0  0  0
    0.9568   -0.2899   -0.8855 C   0  0  0  0  0  0  0  0  0  0  0  0
    1.9992   -0.6505   -0.0646 C   0  0  0  0  0  0  0  0  0  0  0  0
    2.5995   -1.8875    0.1581 C   0  0  0  0  0  0  0  0  0  0  0  0
    3.6612   -1.9424    1.0804 C   0  0  0  0  0  0  0  0  0  0  0  0
    4.0891   -0.7733    1.7497 C   0  0  0  0  0  0  0  0  0  0  0  0
    3.4584    0.4607    1.5033 C   0  0  0  0  0  0  0  0  0  0  0  0
    2.4111    0.4830    0.5854 C   0  0  0  0  0  0  0  0  0  0  0  0
    1.6885    1.5121    0.2173 O   0  0  0  0  0  0  0  0  0  0  0  0
   -4.4534   -1.2807   -1.3945 H   0  0  0  0  0  0  0  0  0  0  0  0
   -3.9135   -2.5212    0.6746 H   0  0  0  0  0  0  0  0  0  0  0  0
   -2.2497   -1.6149    2.2705 H   0  0  0  0  0  0  0  0  0  0  0  0
   -1.1232    0.5280    1.8083 H   0  0  0  0  0  0  0  0  0  0  0  0
   -2.1255    2.8950   -0.8134 H   0  0  0  0  0  0  0  0  0  0  0  0
   -1.0696    2.6286    0.5940 H   0  0  0  0  0  0  0  0  0  0  0  0
   -0.5834    1.4953   -2.2509 H   0  0  0  0  0  0  0  0  0  0  0  0
    0.2178    2.9315   -1.5357 H   0  0  0  0  0  0  0  0  0  0  0  0
    0.3727   -0.9266   -1.5371 H   0  0  0  0  0  0  0  0  0  0  0  0
    2.2622   -2.7765   -0.3590 H   0  0  0  0  0  0  0  0  0  0  0  0
    4.1524   -2.8860    1.2787 H   0  0  0  0  0  0  0  0  0  0  0  0
    4.9061   -0.8272    2.4574 H   0  0  0  0  0  0  0  0  0  0  0  0
    3.7753    1.3619    2.0117 H   0  0  0  0  0  0  0  0  0  0  0  0
  1  2  1  0
  2  3  2  0
  3  4  1  0
  4  5  2  0
  5  6  1  0
  6  7  2  0
  7  8  1  0
  8  9  1  0
  9 10  1  0
 10 11  2  0
 11 12  1  0
 12 13  2  0
 13 14  1  0
 14 15  2  0
 15 16  1  0
 16 17  2  0
 17 18  1  0
  7  2  1  0
 17 12  1  0
 18 10  1  0
  3 19  1  0
  4 20  1  0
  5 21  1  0
  6 22  1  0
  8 23  1  0
  8 24  1  0
  9 25  1  0
  9 26  1  0
 11 27  1  0
 13 28  1  0
 14 29  1  0
 15 30  1  0
 16 31  1  0
M  RAD  1   1   3
M  END
$$$$
