
     RDKit          3D

 31 33  0  0  0  0  0  0  0  0999 V2000
   -3.7362   -1.2733   -1.4399 N   0  0  0  0  0  1  0  0  0  0  0  0
   -3.2274   -0.5737   -0.3062 C   0  0  0  0  0  0  0  0  0  0  0  0
   -3.8762    0.5892    0.1261 C   0  0  0  0  0  0  0  0  0  0  0  0
   -3.3905    1.2989    1.2268 C   0  0  0  0  0  0  0  0  0  0  0  0
   -2.2529    0.8508    1.9009 C   0  0  0  0  0  0  0  0  0  0  0  0
   -1.6000   -0.3098    1.4783 C   0  0  0  0  0  0  0  0  0  0  0  0
   -2.0824   -1.0378    0.3758 C   0  0  0  0  0  0  0  0  0  0  0  0
   -1.3322   -2.2635   -0.0938 C   0  0  0  0  0  0  0  0  0  0  0  0
   -0.3830   -1.9410   -1.2547 C   0  0  0  0  0  0  0  0  0  0  0  0
    0.7023   -1.0003   -0.8285 C   0  0  0  0  0  0  0  0  0  0  0  0
    0.7006    0.3772   -1.0337 C   0  0  0  0  0  0  0  0  0  0  0  0
    1.8603    0.8081   -0.4338 C   0  0  0  0  0  0  0  0  0  0  0  0
    2.4002    2.0855   -0.3035 C   0  0  0  0  0  0  0  0  0  0  0  0
    3.6224    2.2119    0.3828 C   0  0  0  0  0  0  0  0  0  0  0  0
    4.2650    1.0715    0.9163 C   0  0  0  0  0  0  0  0  0  0  0  0
    3.6904   -0.2050    0.7691 C   0  0  0  0  0  0  0  0  0  0  0  0
    2.4806   -0.2977    0.0851 C   0  0  0  0  0  0  0  0  0  0  0  0
    1.7760   -1.3757   -0.1565 O   0  0  0  0  0  0  0  0  0  0  0  0
   -4.7563    0.9463   -0.3941 H   0  0  0  0  0  0  0  0  0  0  0  0
   -3.8941    2.1988    1.5553 H   0  0  0  0  0  0  0  0  0  0  0  0
   -1.8740    1.4056    2.7494 H   0  0  0  0  0  0  0  0  0  0  0  0
   -0.7114   -0.6360    2.0046 H   0  0  0  0  0  0  0  0  0  0  0  0
   -2.0552   -3.0406   -0.4228 H   0  0  0  0  0  0  0  0  0  0  0  0
   -0.7540   -2.7102    0.7453 H   0  0  0  0  0  0  0  0  0  0  0  0
    0.0845   -2.8837   -1.6109 H   0  0  0  0  0  0  0  0  0  0  0  0
   -0.9515   -1.5058   -2.1051 H   0  0  0  0  0  0  0  0  0  0  0  0
   -0.0512    0.9744   -1.5332 H   0  0  0  0  0  0  0  0  0  0  0  0
    1.8982    2.9518   -0.7148 H   0  0  0  0  0  0  0  0  0  0  0  0
    4.0725    3.1886    0.5032 H   0  0  0  0  0  0  0  0  0  0  0  0
    5.2042    1.1804    1.4427 H   0  0  0  0  0  0  0  0  0  0  0  0
    4.1715   -1.0849    1.1756 H   0  0  0  0  0  0  0  0  0  0  0  0
  1  2  1  0
  2  3  2  0
  3  4  1  0
  4  5  2  0
  5  6  1  0
  6  7  2  0
  7  8  1  0
  8  9  1  0
  9 10  1  0
 10 11  2  0
 11 12  1  0
 12 13  2  0
 13 14  1  0
 14 15  2  0
 15 16  1  0
 16 17  2  0
 17 18  1  0
  7  2  1  0
 17 12  1  0
 18 10  1  0
  3 19  1  0
  4 20  1  0
  5 21  1  0
  6 22  1  0
  8 23  1  0
  8 24  1  0
  9 25  1  0
  9 26  1  0
 11 27  1  0
 13 28  1  0
 14 29  1  0
 15 30  1  0
 16 31  1  0
M  RAD  1   1   3
M  END
$$$$
