
     RDKit          3D

 31 33  0  0  0  0  0  0  0  0999 V2000
   -2.6573   -0.9106   -2.4466 N   0  0  0  0  0  1  0  0  0  0  0  0
   -3.3540   -0.2573   -1.3876 C   0  0  0  0  0  0  0  0  0  0  0  0
   -4.7493   -0.3562   -1.3255 C   0  0  0  0  0  0  0  0  0  0  0  0
   -5.4537    0.2620   -0.2897 C   0  0  0  0  0  0  0  0  0  0  0  0
   -4.7670    0.9786    0.6923 C   0  0  0  0  0  0  0  0  0  0  0  0
   -3.3745    1.0832    0.6387 C   0  0  0  0  0  0  0  0  0  0  0  0
   -2.6546    0.4785   -0.4067 C   0  0  0  0  0  0  0  0  0  0  0  0
   -1.1490    0.5775   -0.4259 C   0  0  0  0  0  0  0  0  0  0  0  0
   -0.5218   -0.6129    0.3033 C   0  0  0  0  0  0  0  0  0  0  0  0
    0.9705   -0.5124    0.2795 C   0  0  0  0  0  0  0  0  0  0  0  0
    1.7485    0.1551    1.2221 C   0  0  0  0  0  0  0  0  0  0  0  0
    3.0367    0.0007    0.7654 C   0  0  0  0  0  0  0  0  0  0  0  0
    4.2492    0.4490    1.2844 C   0  0  0  0  0  0  0  0  0  0  0  0
    5.4221    0.1294    0.5753 C   0  0  0  0  0  0  0  0  0  0  0  0
    5.3536   -0.6205   -0.6209 C   0  0  0  0  0  0  0  0  0  0  0  0
    4.1114   -1.0571   -1.1186 C   0  0  0  0  0  0  0  0  0  0  0  0
    2.9687   -0.7255   -0.3943 C   0  0  0  0  0  0  0  0  0  0  0  0
    1.7247   -1.0249   -0.6767 O   0  0  0  0  0  0  0  0  0  0  0  0
   -5.2889   -0.9165   -2.0789 H   0  0  0  0  0  0  0  0  0  0  0  0
   -6.5321    0.1813   -0.2454 H   0  0  0  0  0  0  0  0  0  0  0  0
   -5.3139    1.4510    1.4981 H   0  0  0  0  0  0  0  0  0  0  0  0
   -2.8565    1.6349    1.4136 H   0  0  0  0  0  0  0  0  0  0  0  0
   -0.8271    1.5240    0.0630 H   0  0  0  0  0  0  0  0  0  0  0  0
   -0.7812    0.6160   -1.4746 H   0  0  0  0  0  0  0  0  0  0  0  0
   -0.8266   -1.5617   -0.1890 H   0  0  0  0  0  0  0  0  0  0  0  0
   -0.8737   -0.6393    1.3579 H   0  0  0  0  0  0  0  0  0  0  0  0
    1.4155    0.6810    2.1075 H   0  0  0  0  0  0  0  0  0  0  0  0
    4.2896    1.0234    2.2010 H   0  0  0  0  0  0  0  0  0  0  0  0
    6.3826    0.4604    0.9483 H   0  0  0  0  0  0  0  0  0  0  0  0
    6.2618   -0.8603   -1.1582 H   0  0  0  0  0  0  0  0  0  0  0  0
    4.0462   -1.6308   -2.0338 H   0  0  0  0  0  0  0  0  0  0  0  0
  1  2  1  0
  2  3  2  0
  3  4  1  0
  4  5  2  0
  5  6  1  0
  6  7  2  0
  7  8  1  0
  8  9  1  0
  9 10  1  0
 10 11  2  0
 11 12  1  0
 12 13  2  0
 13 14  1  0
 14 15  2  0
 15 16  1  0
 16 17  2  0
 17 18  1  0
  7  2  1  0
 17 12  1  0
 18 10  1  0
  3 19  1  0
  4 20  1  0
  5 21  1  0
  6 22  1  0
  8 23  1  0
  8 24  1  0
  9 25  1  0
  9 26  1  0
 11 27  1  0
 13 28  1  0
 14 29  1  0
 15 30  1  0
 16 31  1  0
M  RAD  1   1   3
M  END
$$$$
