
     RDKit          3D

 31 33  0  0  0  0  0  0  0  0999 V2000
   -2.8364   -2.3796   -0.0733 N   0  0  0  0  0  1  0  0  0  0  0  0
   -3.4564   -1.0964   -0.0210 C   0  0  0  0  0  0  0  0  0  0  0  0
   -4.8199   -0.9847   -0.3190 C   0  0  0  0  0  0  0  0  0  0  0  0
   -5.4472    0.2631   -0.2897 C   0  0  0  0  0  0  0  0  0  0  0  0
   -4.7141    1.4067    0.0331 C   0  0  0  0  0  0  0  0  0  0  0  0
   -3.3528    1.3051    0.3322 C   0  0  0  0  0  0  0  0  0  0  0  0
   -2.7125    0.0535    0.3211 C   0  0  0  0  0  0  0  0  0  0  0  0
   -1.2347   -0.0273    0.6155 C   0  0  0  0  0  0  0  0  0  0  0  0
   -0.4219    0.0730   -0.6774 C   0  0  0  0  0  0  0  0  0  0  0  0
    1.0420   -0.0103   -0.3815 C   0  0  0  0  0  0  0  0  0  0  0  0
    1.8651    1.0702   -0.0744 C   0  0  0  0  0  0  0  0  0  0  0  0
    3.0979    0.5020    0.1468 C   0  0  0  0  0  0  0  0  0  0  0  0
    4.3194    1.0764    0.4913 C   0  0  0  0  0  0  0  0  0  0  0  0
    5.4227    0.2181    0.6546 C   0  0  0  0  0  0  0  0  0  0  0  0
    5.2782   -1.1762    0.4726 C   0  0  0  0  0  0  0  0  0  0  0  0
    4.0289   -1.7243    0.1259 C   0  0  0  0  0  0  0  0  0  0  0  0
    2.9562   -0.8493   -0.0290 C   0  0  0  0  0  0  0  0  0  0  0  0
    1.7187   -1.1445   -0.3428 O   0  0  0  0  0  0  0  0  0  0  0  0
   -5.3941   -1.8656   -0.5778 H   0  0  0  0  0  0  0  0  0  0  0  0
   -6.5012    0.3443   -0.5222 H   0  0  0  0  0  0  0  0  0  0  0  0
   -5.2002    2.3736    0.0484 H   0  0  0  0  0  0  0  0  0  0  0  0
   -2.7967    2.2033    0.5714 H   0  0  0  0  0  0  0  0  0  0  0  0
   -1.0000   -0.9807    1.1376 H   0  0  0  0  0  0  0  0  0  0  0  0
   -0.9416    0.7969    1.3033 H   0  0  0  0  0  0  0  0  0  0  0  0
   -0.6983   -0.7565   -1.3636 H   0  0  0  0  0  0  0  0  0  0  0  0
   -0.6414    1.0357   -1.1890 H   0  0  0  0  0  0  0  0  0  0  0  0
    1.5952    2.1166   -0.0162 H   0  0  0  0  0  0  0  0  0  0  0  0
    4.4182    2.1455    0.6289 H   0  0  0  0  0  0  0  0  0  0  0  0
    6.3878    0.6284    0.9217 H   0  0  0  0  0  0  0  0  0  0  0  0
    6.1333   -1.8269    0.6011 H   0  0  0  0  0  0  0  0  0  0  0  0
    3.9057   -2.7901   -0.0149 H   0  0  0  0  0  0  0  0  0  0  0  0
  1  2  1  0
  2  3  2  0
  3  4  1  0
  4  5  2  0
  5  6  1  0
  6  7  2  0
  7  8  1  0
  8  9  1  0
  9 10  1  0
 10 11  2  0
 11 12  1  0
 12 13  2  0
 13 14  1  0
 14 15  2  0
 15 16  1  0
 16 17  2  0
 17 18  1  0
  7  2  1  0
 17 12  1  0
 18 10  1  0
  3 19  1  0
  4 20  1  0
  5 21  1  0
  6 22  1  0
  8 23  1  0
  8 24  1  0
  9 25  1  0
  9 26  1  0
 11 27  1  0
 13 28  1  0
 14 29  1  0
 15 30  1  0
 16 31  1  0
M  RAD  1   1   3
M  END
$$$$
