
     RDKit          3D

 31 33  0  0  0  0  0  0  0  0999 V2000
   -3.1752   -0.4043   -2.8069 N   0  0  0  0  0  1  0  0  0  0  0  0
   -2.8472    0.3615   -1.6497 C   0  0  0  0  0  0  0  0  0  0  0  0
   -3.1058    1.7375   -1.6457 C   0  0  0  0  0  0  0  0  0  0  0  0
   -2.7828    2.5116   -0.5287 C   0  0  0  0  0  0  0  0  0  0  0  0
   -2.1984    1.9149    0.5900 C   0  0  0  0  0  0  0  0  0  0  0  0
   -1.9385    0.5422    0.5963 C   0  0  0  0  0  0  0  0  0  0  0  0
   -2.2650   -0.2501   -0.5189 C   0  0  0  0  0  0  0  0  0  0  0  0
   -1.9305   -1.7245   -0.5092 C   0  0  0  0  0  0  0  0  0  0  0  0
   -0.6022   -2.0125   -1.2202 C   0  0  0  0  0  0  0  0  0  0  0  0
    0.5507   -1.3806   -0.5019 C   0  0  0  0  0  0  0  0  0  0  0  0
    1.1442   -0.1674   -0.8420 C   0  0  0  0  0  0  0  0  0  0  0  0
    2.1085    0.0169    0.1206 C   0  0  0  0  0  0  0  0  0  0  0  0
    3.0187    1.0534    0.3139 C   0  0  0  0  0  0  0  0  0  0  0  0
    3.8916    0.9603    1.4139 C   0  0  0  0  0  0  0  0  0  0  0  0
    3.8317   -0.1526    2.2832 C   0  0  0  0  0  0  0  0  0  0  0  0
    2.8975   -1.1818    2.0606 C   0  0  0  0  0  0  0  0  0  0  0  0
    2.0474   -1.0612    0.9638 C   0  0  0  0  0  0  0  0  0  0  0  0
    1.1086   -1.8913    0.5813 O   0  0  0  0  0  0  0  0  0  0  0  0
   -3.5544    2.2091   -2.5111 H   0  0  0  0  0  0  0  0  0  0  0  0
   -2.9823    3.5754   -0.5318 H   0  0  0  0  0  0  0  0  0  0  0  0
   -1.9425    2.5173    1.4521 H   0  0  0  0  0  0  0  0  0  0  0  0
   -1.4727    0.0979    1.4674 H   0  0  0  0  0  0  0  0  0  0  0  0
   -2.7411   -2.2947   -1.0120 H   0  0  0  0  0  0  0  0  0  0  0  0
   -1.8826   -2.1051    0.5353 H   0  0  0  0  0  0  0  0  0  0  0  0
   -0.6425   -1.6481   -2.2697 H   0  0  0  0  0  0  0  0  0  0  0  0
   -0.4410   -3.1111   -1.2521 H   0  0  0  0  0  0  0  0  0  0  0  0
    0.8910    0.4896   -1.6639 H   0  0  0  0  0  0  0  0  0  0  0  0
    3.0544    1.9017   -0.3575 H   0  0  0  0  0  0  0  0  0  0  0  0
    4.6128    1.7465    1.5955 H   0  0  0  0  0  0  0  0  0  0  0  0
    4.5073   -0.2135    3.1264 H   0  0  0  0  0  0  0  0  0  0  0  0
    2.8402   -2.0373    2.7208 H   0  0  0  0  0  0  0  0  0  0  0  0
  1  2  1  0
  2  3  2  0
  3  4  1  0
  4  5  2  0
  5  6  1  0
  6  7  2  0
  7  8  1  0
  8  9  1  0
  9 10  1  0
 10 11  2  0
 11 12  1  0
 12 13  2  0
 13 14  1  0
 14 15  2  0
 15 16  1  0
 16 17  2  0
 17 18  1  0
  7  2  1  0
 17 12  1  0
 18 10  1  0
  3 19  1  0
  4 20  1  0
  5 21  1  0
  6 22  1  0
  8 23  1  0
  8 24  1  0
  9 25  1  0
  9 26  1  0
 11 27  1  0
 13 28  1  0
 14 29  1  0
 15 30  1  0
 16 31  1  0
M  RAD  1   1   3
M  END
$$$$
