
     RDKit          3D

 31 33  0  0  0  0  0  0  0  0999 V2000
    2.5499   -0.1008    2.5972 N   0  0  0  0  0  1  0  0  0  0  0  0
    3.3103   -0.0175    1.3937 C   0  0  0  0  0  0  0  0  0  0  0  0
    4.6858   -0.2760    1.4363 C   0  0  0  0  0  0  0  0  0  0  0  0
    5.4501   -0.2158    0.2687 C   0  0  0  0  0  0  0  0  0  0  0  0
    4.8431    0.0986   -0.9488 C   0  0  0  0  0  0  0  0  0  0  0  0
    3.4710    0.3584   -1.0013 C   0  0  0  0  0  0  0  0  0  0  0  0
    2.6928    0.3159    0.1689 C   0  0  0  0  0  0  0  0  0  0  0  0
    1.2075    0.5681    0.0825 C   0  0  0  0  0  0  0  0  0  0  0  0
    0.4492   -0.7458   -0.1196 C   0  0  0  0  0  0  0  0  0  0  0  0
   -1.0226   -0.4918   -0.2018 C   0  0  0  0  0  0  0  0  0  0  0  0
   -1.7259   -0.1967   -1.3670 C   0  0  0  0  0  0  0  0  0  0  0  0
   -3.0212   -0.0157   -0.9416 C   0  0  0  0  0  0  0  0  0  0  0  0
   -4.1788    0.3005   -1.6491 C   0  0  0  0  0  0  0  0  0  0  0  0
   -5.3769    0.4244   -0.9211 C   0  0  0  0  0  0  0  0  0  0  0  0
   -5.3867    0.2324    0.4793 C   0  0  0  0  0  0  0  0  0  0  0  0
   -4.1985   -0.0849    1.1639 C   0  0  0  0  0  0  0  0  0  0  0  0
   -3.0292   -0.2011    0.4158 C   0  0  0  0  0  0  0  0  0  0  0  0
   -1.8248   -0.4834    0.8481 O   0  0  0  0  0  0  0  0  0  0  0  0
    5.1630   -0.5280    2.3751 H   0  0  0  0  0  0  0  0  0  0  0  0
    6.5128   -0.4179    0.3068 H   0  0  0  0  0  0  0  0  0  0  0  0
    5.4357    0.1377   -1.8537 H   0  0  0  0  0  0  0  0  0  0  0  0
    3.0142    0.5915   -1.9553 H   0  0  0  0  0  0  0  0  0  0  0  0
    0.9905    1.2562   -0.7646 H   0  0  0  0  0  0  0  0  0  0  0  0
    0.8506    1.0732    1.0067 H   0  0  0  0  0  0  0  0  0  0  0  0
    0.6491   -1.4329    0.7309 H   0  0  0  0  0  0  0  0  0  0  0  0
    0.7916   -1.2407   -1.0547 H   0  0  0  0  0  0  0  0  0  0  0  0
   -1.3404   -0.1205   -2.3754 H   0  0  0  0  0  0  0  0  0  0  0  0
   -4.1592    0.4461   -2.7215 H   0  0  0  0  0  0  0  0  0  0  0  0
   -6.2963    0.6688   -1.4370 H   0  0  0  0  0  0  0  0  0  0  0  0
   -6.3137    0.3306    1.0291 H   0  0  0  0  0  0  0  0  0  0  0  0
   -4.1933   -0.2330    2.2358 H   0  0  0  0  0  0  0  0  0  0  0  0
  1  2  1  0
  2  3  2  0
  3  4  1  0
  4  5  2  0
  5  6  1  0
  6  7  2  0
  7  8  1  0
  8  9  1  0
  9 10  1  0
 10 11  2  0
 11 12  1  0
 12 13  2  0
 13 14  1  0
 14 15  2  0
 15 16  1  0
 16 17  2  0
 17 18  1  0
  7  2  1  0
 17 12  1  0
 18 10  1  0
  3 19  1  0
  4 20  1  0
  5 21  1  0
  6 22  1  0
  8 23  1  0
  8 24  1  0
  9 25  1  0
  9 26  1  0
 11 27  1  0
 13 28  1  0
 14 29  1  0
 15 30  1  0
 16 31  1  0
M  RAD  1   1   3
M  END
$$$$
