
     RDKit          3D

 31 33  0  0  0  0  0  0  0  0999 V2000
    2.3609    1.5785    2.4001 N   0  0  0  0  0  1  0  0  0  0  0  0
    3.1945    1.0825    1.3548 C   0  0  0  0  0  0  0  0  0  0  0  0
    4.5782    1.0165    1.5586 C   0  0  0  0  0  0  0  0  0  0  0  0
    5.4149    0.5204    0.5559 C   0  0  0  0  0  0  0  0  0  0  0  0
    4.8726    0.0832   -0.6541 C   0  0  0  0  0  0  0  0  0  0  0  0
    3.4928    0.1454   -0.8669 C   0  0  0  0  0  0  0  0  0  0  0  0
    2.6411    0.6565    0.1281 C   0  0  0  0  0  0  0  0  0  0  0  0
    1.1515    0.6836   -0.1117 C   0  0  0  0  0  0  0  0  0  0  0  0
    0.4999   -0.6022    0.4023 C   0  0  0  0  0  0  0  0  0  0  0  0
   -0.9767   -0.5701    0.1653 C   0  0  0  0  0  0  0  0  0  0  0  0
   -1.6168   -1.0042   -0.9928 C   0  0  0  0  0  0  0  0  0  0  0  0
   -2.9476   -0.7484   -0.7578 C   0  0  0  0  0  0  0  0  0  0  0  0
   -4.0728   -0.9652   -1.5500 C   0  0  0  0  0  0  0  0  0  0  0  0
   -5.3236   -0.5884   -1.0264 C   0  0  0  0  0  0  0  0  0  0  0  0
   -5.4164   -0.0102    0.2601 C   0  0  0  0  0  0  0  0  0  0  0  0
   -4.2591    0.1964    1.0341 C   0  0  0  0  0  0  0  0  0  0  0  0
   -3.0360   -0.1872    0.4889 C   0  0  0  0  0  0  0  0  0  0  0  0
   -1.8478   -0.0831    1.0312 O   0  0  0  0  0  0  0  0  0  0  0  0
    5.0061    1.3464    2.4970 H   0  0  0  0  0  0  0  0  0  0  0  0
    6.4837    0.4701    0.7191 H   0  0  0  0  0  0  0  0  0  0  0  0
    5.5217   -0.3075   -1.4271 H   0  0  0  0  0  0  0  0  0  0  0  0
    3.0876   -0.2065   -1.8077 H   0  0  0  0  0  0  0  0  0  0  0  0
    0.9467    0.7943   -1.1999 H   0  0  0  0  0  0  0  0  0  0  0  0
    0.6986    1.5655    0.3921 H   0  0  0  0  0  0  0  0  0  0  0  0
    0.6873   -0.7119    1.4924 H   0  0  0  0  0  0  0  0  0  0  0  0
    0.9384   -1.4827   -0.1165 H   0  0  0  0  0  0  0  0  0  0  0  0
   -1.1692   -1.4371   -1.8779 H   0  0  0  0  0  0  0  0  0  0  0  0
   -3.9896   -1.4080   -2.5342 H   0  0  0  0  0  0  0  0  0  0  0  0
   -6.2200   -0.7420   -1.6130 H   0  0  0  0  0  0  0  0  0  0  0  0
   -6.3835    0.2761    0.6525 H   0  0  0  0  0  0  0  0  0  0  0  0
   -4.3174    0.6392    2.0198 H   0  0  0  0  0  0  0  0  0  0  0  0
  1  2  1  0
  2  3  2  0
  3  4  1  0
  4  5  2  0
  5  6  1  0
  6  7  2  0
  7  8  1  0
  8  9  1  0
  9 10  1  0
 10 11  2  0
 11 12  1  0
 12 13  2  0
 13 14  1  0
 14 15  2  0
 15 16  1  0
 16 17  2  0
 17 18  1  0
  7  2  1  0
 17 12  1  0
 18 10  1  0
  3 19  1  0
  4 20  1  0
  5 21  1  0
  6 22  1  0
  8 23  1  0
  8 24  1  0
  9 25  1  0
  9 26  1  0
 11 27  1  0
 13 28  1  0
 14 29  1  0
 15 30  1  0
 16 31  1  0
M  RAD  1   1   3
M  END
$$$$
