
     RDKit          3D

 28 29  0  0  0  0  0  0  0  0999 V2000
   -2.6550   -2.2428   -0.7660 N   0  0  0  0  0  1  0  0  0  0  0  0
   -2.4758   -0.9395   -0.2157 C   0  0  0  0  0  0  0  0  0  0  0  0
   -3.3506    0.0867   -0.5923 C   0  0  0  0  0  0  0  0  0  0  0  0
   -3.1892    1.3745   -0.0758 C   0  0  0  0  0  0  0  0  0  0  0  0
   -2.1521    1.6440    0.8190 C   0  0  0  0  0  0  0  0  0  0  0  0
   -1.2752    0.6260    1.2022 C   0  0  0  0  0  0  0  0  0  0  0  0
   -1.4303   -0.6765    0.6950 C   0  0  0  0  0  0  0  0  0  0  0  0
   -0.4413   -1.7509    1.0857 C   0  0  0  0  0  0  0  0  0  0  0  0
    0.6565   -1.9304    0.0275 C   0  0  0  0  0  0  0  0  0  0  0  0
    1.5065   -0.6932   -0.1125 C   0  0  0  0  0  0  0  0  0  0  0  0
    1.2410    0.2400   -1.1293 C   0  0  0  0  0  0  0  0  0  0  0  0
    2.0016    1.4090   -1.2282 C   0  0  0  0  0  0  0  0  0  0  0  0
    3.0278    1.6566   -0.3124 C   0  0  0  0  0  0  0  0  0  0  0  0
    3.2930    0.7370    0.7061 C   0  0  0  0  0  0  0  0  0  0  0  0
    2.5337   -0.4327    0.8097 C   0  0  0  0  0  0  0  0  0  0  0  0
   -4.1548   -0.1127   -1.2894 H   0  0  0  0  0  0  0  0  0  0  0  0
   -3.8667    2.1649   -0.3722 H   0  0  0  0  0  0  0  0  0  0  0  0
   -2.0246    2.6439    1.2132 H   0  0  0  0  0  0  0  0  0  0  0  0
   -0.4682    0.8555    1.8871 H   0  0  0  0  0  0  0  0  0  0  0  0
    0.0237   -1.5121    2.0677 H   0  0  0  0  0  0  0  0  0  0  0  0
   -0.9744   -2.7165    1.2210 H   0  0  0  0  0  0  0  0  0  0  0  0
    0.1991   -2.2000   -0.9496 H   0  0  0  0  0  0  0  0  0  0  0  0
    1.3022   -2.7858    0.3233 H   0  0  0  0  0  0  0  0  0  0  0  0
    0.4399    0.0671   -1.8374 H   0  0  0  0  0  0  0  0  0  0  0  0
    1.7926    2.1250   -2.0124 H   0  0  0  0  0  0  0  0  0  0  0  0
    3.6147    2.5626   -0.3895 H   0  0  0  0  0  0  0  0  0  0  0  0
    4.0842    0.9326    1.4182 H   0  0  0  0  0  0  0  0  0  0  0  0
    2.7415   -1.1323    1.6098 H   0  0  0  0  0  0  0  0  0  0  0  0
  1  2  1  0
  2  3  2  0
  3  4  1  0
  4  5  2  0
  5  6  1  0
  6  7  2  0
  7  8  1  0
  8  9  1  0
  9 10  1  0
 10 11  2  0
 11 12  1  0
 12 13  2  0
 13 14  1  0
 14 15  2  0
  7  2  1  0
 15 10  1  0
  3 16  1  0
  4 17  1  0
  5 18  1  0
  6 19  1  0
  8 20  1  0
  8 21  1  0
  9 22  1  0
  9 23  1  0
 11 24  1  0
 12 25  1  0
 13 26  1  0
 14 27  1  0
 15 28  1  0
M  RAD  1   1   3
M  END
$$$$
