
     RDKit          3D

 28 29  0  0  0  0  0  0  0  0999 V2000
   -2.5994   -2.2495   -1.0365 N   0  0  0  0  0  1  0  0  0  0  0  0
   -2.4366   -1.0626   -0.2632 C   0  0  0  0  0  0  0  0  0  0  0  0
   -3.1789   -0.9074    0.9137 C   0  0  0  0  0  0  0  0  0  0  0  0
   -3.0291    0.2411    1.6945 C   0  0  0  0  0  0  0  0  0  0  0  0
   -2.1359    1.2404    1.3039 C   0  0  0  0  0  0  0  0  0  0  0  0
   -1.3922    1.0955    0.1300 C   0  0  0  0  0  0  0  0  0  0  0  0
   -1.5382   -0.0527   -0.6688 C   0  0  0  0  0  0  0  0  0  0  0  0
   -0.6885   -0.2104   -1.9090 C   0  0  0  0  0  0  0  0  0  0  0  0
    0.5534   -1.0742   -1.6460 C   0  0  0  0  0  0  0  0  0  0  0  0
    1.4844   -0.4275   -0.6521 C   0  0  0  0  0  0  0  0  0  0  0  0
    1.4402   -0.7922    0.7045 C   0  0  0  0  0  0  0  0  0  0  0  0
    2.2728   -0.1579    1.6314 C   0  0  0  0  0  0  0  0  0  0  0  0
    3.1506    0.8458    1.2129 C   0  0  0  0  0  0  0  0  0  0  0  0
    3.1950    1.2192   -0.1332 C   0  0  0  0  0  0  0  0  0  0  0  0
    2.3629    0.5886   -1.0634 C   0  0  0  0  0  0  0  0  0  0  0  0
   -3.8704   -1.6799    1.2264 H   0  0  0  0  0  0  0  0  0  0  0  0
   -3.6034    0.3549    2.6049 H   0  0  0  0  0  0  0  0  0  0  0  0
   -2.0164    2.1268    1.9134 H   0  0  0  0  0  0  0  0  0  0  0  0
   -0.6943    1.8744   -0.1514 H   0  0  0  0  0  0  0  0  0  0  0  0
   -0.3747    0.7850   -2.2940 H   0  0  0  0  0  0  0  0  0  0  0  0
   -1.2910   -0.6799   -2.7162 H   0  0  0  0  0  0  0  0  0  0  0  0
    1.0927   -1.2272   -2.6060 H   0  0  0  0  0  0  0  0  0  0  0  0
    0.2445   -2.0815   -1.2904 H   0  0  0  0  0  0  0  0  0  0  0  0
    0.7551   -1.5589    1.0446 H   0  0  0  0  0  0  0  0  0  0  0  0
    2.2343   -0.4416    2.6752 H   0  0  0  0  0  0  0  0  0  0  0  0
    3.7934    1.3368    1.9320 H   0  0  0  0  0  0  0  0  0  0  0  0
    3.8711    2.0006   -0.4552 H   0  0  0  0  0  0  0  0  0  0  0  0
    2.3986    0.8943   -2.1017 H   0  0  0  0  0  0  0  0  0  0  0  0
  1  2  1  0
  2  3  2  0
  3  4  1  0
  4  5  2  0
  5  6  1  0
  6  7  2  0
  7  8  1  0
  8  9  1  0
  9 10  1  0
 10 11  2  0
 11 12  1  0
 12 13  2  0
 13 14  1  0
 14 15  2  0
  7  2  1  0
 15 10  1  0
  3 16  1  0
  4 17  1  0
  5 18  1  0
  6 19  1  0
  8 20  1  0
  8 21  1  0
  9 22  1  0
  9 23  1  0
 11 24  1  0
 12 25  1  0
 13 26  1  0
 14 27  1  0
 15 28  1  0
M  RAD  1   1   3
M  END
$$$$
