
     RDKit          3D

 28 29  0  0  0  0  0  0  0  0999 V2000
    2.7316   -2.2562    0.5833 N   0  0  0  0  0  1  0  0  0  0  0  0
    2.5020   -0.9284    0.1168 C   0  0  0  0  0  0  0  0  0  0  0  0
    3.3950    0.0869    0.4803 C   0  0  0  0  0  0  0  0  0  0  0  0
    3.1859    1.3977    0.0454 C   0  0  0  0  0  0  0  0  0  0  0  0
    2.0826    1.7013   -0.7545 C   0  0  0  0  0  0  0  0  0  0  0  0
    1.1871    0.6945   -1.1241 C   0  0  0  0  0  0  0  0  0  0  0  0
    1.3894   -0.6306   -0.6986 C   0  0  0  0  0  0  0  0  0  0  0  0
    0.3819   -1.6944   -1.0703 C   0  0  0  0  0  0  0  0  0  0  0  0
   -0.6323   -1.9407    0.0558 C   0  0  0  0  0  0  0  0  0  0  0  0
   -1.4785   -0.7220    0.3231 C   0  0  0  0  0  0  0  0  0  0  0  0
   -2.5738   -0.4259   -0.5052 C   0  0  0  0  0  0  0  0  0  0  0  0
   -3.3318    0.7281   -0.2844 C   0  0  0  0  0  0  0  0  0  0  0  0
   -2.9979    1.5969    0.7582 C   0  0  0  0  0  0  0  0  0  0  0  0
   -1.9043    1.3140    1.5810 C   0  0  0  0  0  0  0  0  0  0  0  0
   -1.1445    0.1604    1.3647 C   0  0  0  0  0  0  0  0  0  0  0  0
    4.2506   -0.1392    1.1043 H   0  0  0  0  0  0  0  0  0  0  0  0
    3.8777    2.1794    0.3314 H   0  0  0  0  0  0  0  0  0  0  0  0
    1.9186    2.7186   -1.0853 H   0  0  0  0  0  0  0  0  0  0  0  0
    0.3294    0.9499   -1.7342 H   0  0  0  0  0  0  0  0  0  0  0  0
    0.9105   -2.6457   -1.2952 H   0  0  0  0  0  0  0  0  0  0  0  0
   -0.1571   -1.4105   -2.0011 H   0  0  0  0  0  0  0  0  0  0  0  0
   -0.1009   -2.2551    0.9807 H   0  0  0  0  0  0  0  0  0  0  0  0
   -1.2919   -2.7869   -0.2355 H   0  0  0  0  0  0  0  0  0  0  0  0
   -2.8357   -1.0857   -1.3231 H   0  0  0  0  0  0  0  0  0  0  0  0
   -4.1756    0.9512   -0.9244 H   0  0  0  0  0  0  0  0  0  0  0  0
   -3.5842    2.4911    0.9260 H   0  0  0  0  0  0  0  0  0  0  0  0
   -1.6424    1.9910    2.3838 H   0  0  0  0  0  0  0  0  0  0  0  0
   -0.2914   -0.0397    2.0013 H   0  0  0  0  0  0  0  0  0  0  0  0
  1  2  1  0
  2  3  2  0
  3  4  1  0
  4  5  2  0
  5  6  1  0
  6  7  2  0
  7  8  1  0
  8  9  1  0
  9 10  1  0
 10 11  2  0
 11 12  1  0
 12 13  2  0
 13 14  1  0
 14 15  2  0
  7  2  1  0
 15 10  1  0
  3 16  1  0
  4 17  1  0
  5 18  1  0
  6 19  1  0
  8 20  1  0
  8 21  1  0
  9 22  1  0
  9 23  1  0
 11 24  1  0
 12 25  1  0
 13 26  1  0
 14 27  1  0
 15 28  1  0
M  RAD  1   1   3
M  END
$$$$
