
     RDKit          3D

 28 29  0  0  0  0  0  0  0  0999 V2000
    2.1818    0.0786    2.0456 N   0  0  0  0  0  1  0  0  0  0  0  0
    2.7048    0.0916    0.7189 C   0  0  0  0  0  0  0  0  0  0  0  0
    4.0403    0.4597    0.5154 C   0  0  0  0  0  0  0  0  0  0  0  0
    4.5720    0.4952   -0.7759 C   0  0  0  0  0  0  0  0  0  0  0  0
    3.7705    0.1674   -1.8712 C   0  0  0  0  0  0  0  0  0  0  0  0
    2.4365   -0.2014   -1.6780 C   0  0  0  0  0  0  0  0  0  0  0  0
    1.8932   -0.2559   -0.3824 C   0  0  0  0  0  0  0  0  0  0  0  0
    0.4414   -0.6251   -0.2008 C   0  0  0  0  0  0  0  0  0  0  0  0
   -0.4379    0.6291   -0.1972 C   0  0  0  0  0  0  0  0  0  0  0  0
   -1.8851    0.2601   -0.0120 C   0  0  0  0  0  0  0  0  0  0  0  0
   -2.4268    0.1429    1.2792 C   0  0  0  0  0  0  0  0  0  0  0  0
   -3.7630   -0.2321    1.4506 C   0  0  0  0  0  0  0  0  0  0  0  0
   -4.5634   -0.5017    0.3371 C   0  0  0  0  0  0  0  0  0  0  0  0
   -4.0278   -0.4009   -0.9499 C   0  0  0  0  0  0  0  0  0  0  0  0
   -2.6920   -0.0262   -1.1259 C   0  0  0  0  0  0  0  0  0  0  0  0
    4.6665    0.7228    1.3587 H   0  0  0  0  0  0  0  0  0  0  0  0
    5.6045    0.7818   -0.9280 H   0  0  0  0  0  0  0  0  0  0  0  0
    4.1822    0.2025   -2.8716 H   0  0  0  0  0  0  0  0  0  0  0  0
    1.8258   -0.4435   -2.5392 H   0  0  0  0  0  0  0  0  0  0  0  0
    0.1185   -1.3024   -1.0224 H   0  0  0  0  0  0  0  0  0  0  0  0
    0.3058   -1.1857    0.7498 H   0  0  0  0  0  0  0  0  0  0  0  0
   -0.3092    1.1791   -1.1557 H   0  0  0  0  0  0  0  0  0  0  0  0
   -0.1172    1.3117    0.6205 H   0  0  0  0  0  0  0  0  0  0  0  0
   -1.8144    0.3400    2.1505 H   0  0  0  0  0  0  0  0  0  0  0  0
   -4.1770   -0.3170    2.4470 H   0  0  0  0  0  0  0  0  0  0  0  0
   -5.5971   -0.7931    0.4716 H   0  0  0  0  0  0  0  0  0  0  0  0
   -4.6467   -0.6165   -1.8113 H   0  0  0  0  0  0  0  0  0  0  0  0
   -2.2863    0.0391   -2.1280 H   0  0  0  0  0  0  0  0  0  0  0  0
  1  2  1  0
  2  3  2  0
  3  4  1  0
  4  5  2  0
  5  6  1  0
  6  7  2  0
  7  8  1  0
  8  9  1  0
  9 10  1  0
 10 11  2  0
 11 12  1  0
 12 13  2  0
 13 14  1  0
 14 15  2  0
  7  2  1  0
 15 10  1  0
  3 16  1  0
  4 17  1  0
  5 18  1  0
  6 19  1  0
  8 20  1  0
  8 21  1  0
  9 22  1  0
  9 23  1  0
 11 24  1  0
 12 25  1  0
 13 26  1  0
 14 27  1  0
 15 28  1  0
M  RAD  1   1   3
M  END
$$$$
