
     RDKit          3D

 28 29  0  0  0  0  0  0  0  0999 V2000
   -1.8364   -2.4528   -0.6844 N   0  0  0  0  0  1  0  0  0  0  0  0
   -2.5456   -1.2592   -0.3589 C   0  0  0  0  0  0  0  0  0  0  0  0
   -3.9043   -1.3406   -0.0306 C   0  0  0  0  0  0  0  0  0  0  0  0
   -4.6176   -0.1879    0.3069 C   0  0  0  0  0  0  0  0  0  0  0  0
   -3.9755    1.0519    0.3227 C   0  0  0  0  0  0  0  0  0  0  0  0
   -2.6198    1.1432   -0.0036 C   0  0  0  0  0  0  0  0  0  0  0  0
   -1.8940   -0.0070   -0.3598 C   0  0  0  0  0  0  0  0  0  0  0  0
   -0.4234    0.1111   -0.6765 C   0  0  0  0  0  0  0  0  0  0  0  0
    0.4191   -0.1077    0.5837 C   0  0  0  0  0  0  0  0  0  0  0  0
    1.8858    0.0061    0.2660 C   0  0  0  0  0  0  0  0  0  0  0  0
    2.6103   -1.1235   -0.1499 C   0  0  0  0  0  0  0  0  0  0  0  0
    3.9653   -1.0098   -0.4765 C   0  0  0  0  0  0  0  0  0  0  0  0
    4.6027    0.2317   -0.3999 C   0  0  0  0  0  0  0  0  0  0  0  0
    3.8850    1.3626   -0.0005 C   0  0  0  0  0  0  0  0  0  0  0  0
    2.5298    1.2533    0.3270 C   0  0  0  0  0  0  0  0  0  0  0  0
   -4.4079   -2.2992   -0.0330 H   0  0  0  0  0  0  0  0  0  0  0  0
   -5.6674   -0.2564    0.5612 H   0  0  0  0  0  0  0  0  0  0  0  0
   -4.5280    1.9429    0.5915 H   0  0  0  0  0  0  0  0  0  0  0  0
   -2.1347    2.1112    0.0227 H   0  0  0  0  0  0  0  0  0  0  0  0
   -0.2076    1.1185   -1.0970 H   0  0  0  0  0  0  0  0  0  0  0  0
   -0.1396   -0.6298   -1.4555 H   0  0  0  0  0  0  0  0  0  0  0  0
    0.1414    0.6447    1.3549 H   0  0  0  0  0  0  0  0  0  0  0  0
    0.2047   -1.1122    1.0106 H   0  0  0  0  0  0  0  0  0  0  0  0
    2.1257   -2.0894   -0.2225 H   0  0  0  0  0  0  0  0  0  0  0  0
    4.5204   -1.8836   -0.7924 H   0  0  0  0  0  0  0  0  0  0  0  0
    5.6511    0.3183   -0.6543 H   0  0  0  0  0  0  0  0  0  0  0  0
    4.3779    2.3248    0.0520 H   0  0  0  0  0  0  0  0  0  0  0  0
    1.9826    2.1389    0.6260 H   0  0  0  0  0  0  0  0  0  0  0  0
  1  2  1  0
  2  3  2  0
  3  4  1  0
  4  5  2  0
  5  6  1  0
  6  7  2  0
  7  8  1  0
  8  9  1  0
  9 10  1  0
 10 11  2  0
 11 12  1  0
 12 13  2  0
 13 14  1  0
 14 15  2  0
  7  2  1  0
 15 10  1  0
  3 16  1  0
  4 17  1  0
  5 18  1  0
  6 19  1  0
  8 20  1  0
  8 21  1  0
  9 22  1  0
  9 23  1  0
 11 24  1  0
 12 25  1  0
 13 26  1  0
 14 27  1  0
 15 28  1  0
M  RAD  1   1   3
M  END
$$$$
