
     RDKit          3D

 28 29  0  0  0  0  0  0  0  0999 V2000
   -1.7097    0.8589   -2.4710 N   0  0  0  0  0  1  0  0  0  0  0  0
   -2.4754    0.3607   -1.3759 C   0  0  0  0  0  0  0  0  0  0  0  0
   -3.8548    0.5985   -1.3435 C   0  0  0  0  0  0  0  0  0  0  0  0
   -4.6245    0.1342   -0.2742 C   0  0  0  0  0  0  0  0  0  0  0  0
   -4.0189   -0.5662    0.7708 C   0  0  0  0  0  0  0  0  0  0  0  0
   -2.6428   -0.8087    0.7472 C   0  0  0  0  0  0  0  0  0  0  0  0
   -1.8591   -0.3601   -0.3304 C   0  0  0  0  0  0  0  0  0  0  0  0
   -0.3702   -0.6049   -0.3185 C   0  0  0  0  0  0  0  0  0  0  0  0
    0.3654    0.5752    0.3235 C   0  0  0  0  0  0  0  0  0  0  0  0
    1.8506    0.3319    0.3313 C   0  0  0  0  0  0  0  0  0  0  0  0
    2.4538   -0.3372    1.4095 C   0  0  0  0  0  0  0  0  0  0  0  0
    3.8289   -0.5915    1.3997 C   0  0  0  0  0  0  0  0  0  0  0  0
    4.6081   -0.1893    0.3114 C   0  0  0  0  0  0  0  0  0  0  0  0
    4.0127    0.4643   -0.7712 C   0  0  0  0  0  0  0  0  0  0  0  0
    2.6380    0.7206   -0.7655 C   0  0  0  0  0  0  0  0  0  0  0  0
   -4.3311    1.1476   -2.1462 H   0  0  0  0  0  0  0  0  0  0  0  0
   -5.6902    0.3220   -0.2532 H   0  0  0  0  0  0  0  0  0  0  0  0
   -4.6157   -0.9189    1.6020 H   0  0  0  0  0  0  0  0  0  0  0  0
   -2.1873   -1.3454    1.5704 H   0  0  0  0  0  0  0  0  0  0  0  0
   -0.1452   -1.5354    0.2487 H   0  0  0  0  0  0  0  0  0  0  0  0
   -0.0007   -0.7632   -1.3552 H   0  0  0  0  0  0  0  0  0  0  0  0
    0.0022    0.7208    1.3650 H   0  0  0  0  0  0  0  0  0  0  0  0
    0.1413    1.5091   -0.2377 H   0  0  0  0  0  0  0  0  0  0  0  0
    1.8596   -0.6624    2.2546 H   0  0  0  0  0  0  0  0  0  0  0  0
    4.2899   -1.1036    2.2345 H   0  0  0  0  0  0  0  0  0  0  0  0
    5.6720   -0.3881    0.3048 H   0  0  0  0  0  0  0  0  0  0  0  0
    4.6160    0.7693   -1.6165 H   0  0  0  0  0  0  0  0  0  0  0  0
    2.1872    1.2194   -1.6146 H   0  0  0  0  0  0  0  0  0  0  0  0
  1  2  1  0
  2  3  2  0
  3  4  1  0
  4  5  2  0
  5  6  1  0
  6  7  2  0
  7  8  1  0
  8  9  1  0
  9 10  1  0
 10 11  2  0
 11 12  1  0
 12 13  2  0
 13 14  1  0
 14 15  2  0
  7  2  1  0
 15 10  1  0
  3 16  1  0
  4 17  1  0
  5 18  1  0
  6 19  1  0
  8 20  1  0
  8 21  1  0
  9 22  1  0
  9 23  1  0
 11 24  1  0
 12 25  1  0
 13 26  1  0
 14 27  1  0
 15 28  1  0
M  RAD  1   1   3
M  END
$$$$
