
     RDKit          3D

 28 29  0  0  0  0  0  0  0  0999 V2000
   -2.9308   -1.9202   -0.7845 N   0  0  0  0  0  1  0  0  0  0  0  0
   -2.5745   -0.5977   -0.3879 C   0  0  0  0  0  0  0  0  0  0  0  0
   -3.3884    0.0840    0.5249 C   0  0  0  0  0  0  0  0  0  0  0  0
   -3.0549    1.3761    0.9375 C   0  0  0  0  0  0  0  0  0  0  0  0
   -1.9056    1.9938    0.4410 C   0  0  0  0  0  0  0  0  0  0  0  0
   -1.0882    1.3223   -0.4717 C   0  0  0  0  0  0  0  0  0  0  0  0
   -1.4158    0.0237   -0.9006 C   0  0  0  0  0  0  0  0  0  0  0  0
   -0.4917   -0.7023   -1.8514 C   0  0  0  0  0  0  0  0  0  0  0  0
    0.4624   -1.6499   -1.1105 C   0  0  0  0  0  0  0  0  0  0  0  0
    1.4008   -0.8997   -0.1997 C   0  0  0  0  0  0  0  0  0  0  0  0
    1.1112   -0.7718    1.1696 C   0  0  0  0  0  0  0  0  0  0  0  0
    1.9595   -0.0364    2.0029 C   0  0  0  0  0  0  0  0  0  0  0  0
    3.0983    0.5789    1.4759 C   0  0  0  0  0  0  0  0  0  0  0  0
    3.3890    0.4625    0.1138 C   0  0  0  0  0  0  0  0  0  0  0  0
    2.5425   -0.2707   -0.7235 C   0  0  0  0  0  0  0  0  0  0  0  0
   -4.2791   -0.3896    0.9185 H   0  0  0  0  0  0  0  0  0  0  0  0
   -3.6861    1.8977    1.6454 H   0  0  0  0  0  0  0  0  0  0  0  0
   -1.6452    2.9926    0.7667 H   0  0  0  0  0  0  0  0  0  0  0  0
   -0.1933    1.8112   -0.8368 H   0  0  0  0  0  0  0  0  0  0  0  0
   -1.0922   -1.2899   -2.5787 H   0  0  0  0  0  0  0  0  0  0  0  0
    0.0982    0.0256   -2.4512 H   0  0  0  0  0  0  0  0  0  0  0  0
    1.0562   -2.2176   -1.8596 H   0  0  0  0  0  0  0  0  0  0  0  0
   -0.1222   -2.3996   -0.5335 H   0  0  0  0  0  0  0  0  0  0  0  0
    0.2248   -1.2322    1.5884 H   0  0  0  0  0  0  0  0  0  0  0  0
    1.7316    0.0600    3.0565 H   0  0  0  0  0  0  0  0  0  0  0  0
    3.7531    1.1490    2.1221 H   0  0  0  0  0  0  0  0  0  0  0  0
    4.2681    0.9443   -0.2942 H   0  0  0  0  0  0  0  0  0  0  0  0
    2.7724   -0.3444   -1.7792 H   0  0  0  0  0  0  0  0  0  0  0  0
  1  2  1  0
  2  3  2  0
  3  4  1  0
  4  5  2  0
  5  6  1  0
  6  7  2  0
  7  8  1  0
  8  9  1  0
  9 10  1  0
 10 11  2  0
 11 12  1  0
 12 13  2  0
 13 14  1  0
 14 15  2  0
  7  2  1  0
 15 10  1  0
  3 16  1  0
  4 17  1  0
  5 18  1  0
  6 19  1  0
  8 20  1  0
  8 21  1  0
  9 22  1  0
  9 23  1  0
 11 24  1  0
 12 25  1  0
 13 26  1  0
 14 27  1  0
 15 28  1  0
M  RAD  1   1   3
M  END
$$$$
