
     RDKit          3D

 28 29  0  0  0  0  0  0  0  0999 V2000
    2.0977    1.1195   -2.0739 N   0  0  0  0  0  1  0  0  0  0  0  0
    2.6694    0.4861   -0.9313 C   0  0  0  0  0  0  0  0  0  0  0  0
    4.0127    0.0930   -0.9696 C   0  0  0  0  0  0  0  0  0  0  0  0
    4.5919   -0.5431    0.1310 C   0  0  0  0  0  0  0  0  0  0  0  0
    3.8303   -0.7940    1.2741 C   0  0  0  0  0  0  0  0  0  0  0  0
    2.4889   -0.4052    1.3217 C   0  0  0  0  0  0  0  0  0  0  0  0
    1.8979    0.2494    0.2268 C   0  0  0  0  0  0  0  0  0  0  0  0
    0.4391    0.6306    0.2884 C   0  0  0  0  0  0  0  0  0  0  0  0
   -0.4355   -0.4877   -0.2863 C   0  0  0  0  0  0  0  0  0  0  0  0
   -1.8897   -0.1049   -0.2280 C   0  0  0  0  0  0  0  0  0  0  0  0
   -2.4792    0.6027   -1.2891 C   0  0  0  0  0  0  0  0  0  0  0  0
   -3.8221    0.9866   -1.2194 C   0  0  0  0  0  0  0  0  0  0  0  0
   -4.5817    0.6759   -0.0880 C   0  0  0  0  0  0  0  0  0  0  0  0
   -3.9985   -0.0155    0.9775 C   0  0  0  0  0  0  0  0  0  0  0  0
   -2.6559   -0.4012    0.9118 C   0  0  0  0  0  0  0  0  0  0  0  0
    4.6082    0.2769   -1.8551 H   0  0  0  0  0  0  0  0  0  0  0  0
    5.6303   -0.8463    0.0958 H   0  0  0  0  0  0  0  0  0  0  0  0
    4.2788   -1.2935    2.1231 H   0  0  0  0  0  0  0  0  0  0  0  0
    1.9097   -0.6158    2.2124 H   0  0  0  0  0  0  0  0  0  0  0  0
    0.2667    1.5739   -0.2746 H   0  0  0  0  0  0  0  0  0  0  0  0
    0.1447    0.8273    1.3432 H   0  0  0  0  0  0  0  0  0  0  0  0
   -0.1430   -0.6909   -1.3401 H   0  0  0  0  0  0  0  0  0  0  0  0
   -0.2696   -1.4256    0.2889 H   0  0  0  0  0  0  0  0  0  0  0  0
   -1.8988    0.8578   -2.1673 H   0  0  0  0  0  0  0  0  0  0  0  0
   -4.2729    1.5280   -2.0410 H   0  0  0  0  0  0  0  0  0  0  0  0
   -5.6206    0.9749   -0.0351 H   0  0  0  0  0  0  0  0  0  0  0  0
   -4.5858   -0.2496    1.8559 H   0  0  0  0  0  0  0  0  0  0  0  0
   -2.2132   -0.9283    1.7481 H   0  0  0  0  0  0  0  0  0  0  0  0
  1  2  1  0
  2  3  2  0
  3  4  1  0
  4  5  2  0
  5  6  1  0
  6  7  2  0
  7  8  1  0
  8  9  1  0
  9 10  1  0
 10 11  2  0
 11 12  1  0
 12 13  2  0
 13 14  1  0
 14 15  2  0
  7  2  1  0
 15 10  1  0
  3 16  1  0
  4 17  1  0
  5 18  1  0
  6 19  1  0
  8 20  1  0
  8 21  1  0
  9 22  1  0
  9 23  1  0
 11 24  1  0
 12 25  1  0
 13 26  1  0
 14 27  1  0
 15 28  1  0
M  RAD  1   1   3
M  END
$$$$
