
     RDKit          3D

 28 29  0  0  0  0  0  0  0  0999 V2000
    2.8815   -2.0271    0.7737 N   0  0  0  0  0  1  0  0  0  0  0  0
    2.5602   -0.6846    0.4166 C   0  0  0  0  0  0  0  0  0  0  0  0
    3.2875    0.3666    0.9880 C   0  0  0  0  0  0  0  0  0  0  0  0
    2.9846    1.6909    0.6629 C   0  0  0  0  0  0  0  0  0  0  0  0
    1.9526    1.9720   -0.2342 C   0  0  0  0  0  0  0  0  0  0  0  0
    1.2225    0.9297   -0.8111 C   0  0  0  0  0  0  0  0  0  0  0  0
    1.5213   -0.4083   -0.4976 C   0  0  0  0  0  0  0  0  0  0  0  0
    0.6873   -1.5178   -1.0962 C   0  0  0  0  0  0  0  0  0  0  0  0
   -0.4146   -1.9875   -0.1357 C   0  0  0  0  0  0  0  0  0  0  0  0
   -1.4161   -0.8959    0.1438 C   0  0  0  0  0  0  0  0  0  0  0  0
   -2.4362   -0.6181   -0.7812 C   0  0  0  0  0  0  0  0  0  0  0  0
   -3.3381    0.4236   -0.5432 C   0  0  0  0  0  0  0  0  0  0  0  0
   -3.2236    1.1986    0.6142 C   0  0  0  0  0  0  0  0  0  0  0  0
   -2.2060    0.9344    1.5349 C   0  0  0  0  0  0  0  0  0  0  0  0
   -1.3029   -0.1072    1.3015 C   0  0  0  0  0  0  0  0  0  0  0  0
    4.0864    0.1574    1.6884 H   0  0  0  0  0  0  0  0  0  0  0  0
    3.5482    2.4999    1.1095 H   0  0  0  0  0  0  0  0  0  0  0  0
    1.7150    2.9989   -0.4801 H   0  0  0  0  0  0  0  0  0  0  0  0
    0.4166    1.1662   -1.4950 H   0  0  0  0  0  0  0  0  0  0  0  0
    0.2293   -1.1859   -2.0542 H   0  0  0  0  0  0  0  0  0  0  0  0
    1.3405   -2.3812   -1.3469 H   0  0  0  0  0  0  0  0  0  0  0  0
    0.0398   -2.3498    0.8124 H   0  0  0  0  0  0  0  0  0  0  0  0
   -0.9386   -2.8566   -0.5898 H   0  0  0  0  0  0  0  0  0  0  0  0
   -2.5284   -1.2045   -1.6870 H   0  0  0  0  0  0  0  0  0  0  0  0
   -4.1232    0.6328   -1.2582 H   0  0  0  0  0  0  0  0  0  0  0  0
   -3.9210    2.0062    0.7957 H   0  0  0  0  0  0  0  0  0  0  0  0
   -2.1140    1.5396    2.4275 H   0  0  0  0  0  0  0  0  0  0  0  0
   -0.5108   -0.2924    2.0165 H   0  0  0  0  0  0  0  0  0  0  0  0
  1  2  1  0
  2  3  2  0
  3  4  1  0
  4  5  2  0
  5  6  1  0
  6  7  2  0
  7  8  1  0
  8  9  1  0
  9 10  1  0
 10 11  2  0
 11 12  1  0
 12 13  2  0
 13 14  1  0
 14 15  2  0
  7  2  1  0
 15 10  1  0
  3 16  1  0
  4 17  1  0
  5 18  1  0
  6 19  1  0
  8 20  1  0
  8 21  1  0
  9 22  1  0
  9 23  1  0
 11 24  1  0
 12 25  1  0
 13 26  1  0
 14 27  1  0
 15 28  1  0
M  RAD  1   1   3
M  END
$$$$
