
     RDKit          3D

 28 29  0  0  0  0  0  0  0  0999 V2000
    2.9196   -1.8661    0.9409 N   0  0  0  0  0  1  0  0  0  0  0  0
    2.5761   -0.6186    0.3417 C   0  0  0  0  0  0  0  0  0  0  0  0
    3.3254    0.5206    0.6592 C   0  0  0  0  0  0  0  0  0  0  0  0
    3.0019    1.7564    0.0941 C   0  0  0  0  0  0  0  0  0  0  0  0
    1.9271    1.8606   -0.7908 C   0  0  0  0  0  0  0  0  0  0  0  0
    1.1747    0.7289   -1.1153 C   0  0  0  0  0  0  0  0  0  0  0  0
    1.4936   -0.5226   -0.5587 C   0  0  0  0  0  0  0  0  0  0  0  0
    0.6366   -1.7239   -0.8863 C   0  0  0  0  0  0  0  0  0  0  0  0
   -0.4162   -1.9890    0.1993 C   0  0  0  0  0  0  0  0  0  0  0  0
   -1.4077   -0.8583    0.3053 C   0  0  0  0  0  0  0  0  0  0  0  0
   -1.2428    0.1426    1.2780 C   0  0  0  0  0  0  0  0  0  0  0  0
   -2.1380    1.2145    1.3440 C   0  0  0  0  0  0  0  0  0  0  0  0
   -3.1995    1.2974    0.4388 C   0  0  0  0  0  0  0  0  0  0  0  0
   -3.3658    0.3100   -0.5362 C   0  0  0  0  0  0  0  0  0  0  0  0
   -2.4719   -0.7630   -0.6067 C   0  0  0  0  0  0  0  0  0  0  0  0
    4.1577    0.4495    1.3483 H   0  0  0  0  0  0  0  0  0  0  0  0
    3.5828    2.6346    0.3449 H   0  0  0  0  0  0  0  0  0  0  0  0
    1.6739    2.8201   -1.2229 H   0  0  0  0  0  0  0  0  0  0  0  0
    0.3361    0.8301   -1.7934 H   0  0  0  0  0  0  0  0  0  0  0  0
    0.1322   -1.5850   -1.8680 H   0  0  0  0  0  0  0  0  0  0  0  0
    1.2808   -2.6232   -0.9925 H   0  0  0  0  0  0  0  0  0  0  0  0
    0.0843   -2.1596    1.1775 H   0  0  0  0  0  0  0  0  0  0  0  0
   -0.9577   -2.9278   -0.0489 H   0  0  0  0  0  0  0  0  0  0  0  0
   -0.4167    0.0978    1.9770 H   0  0  0  0  0  0  0  0  0  0  0  0
   -2.0061    1.9834    2.0943 H   0  0  0  0  0  0  0  0  0  0  0  0
   -3.8907    2.1287    0.4903 H   0  0  0  0  0  0  0  0  0  0  0  0
   -4.1849    0.3783   -1.2403 H   0  0  0  0  0  0  0  0  0  0  0  0
   -2.6048   -1.5161   -1.3736 H   0  0  0  0  0  0  0  0  0  0  0  0
  1  2  1  0
  2  3  2  0
  3  4  1  0
  4  5  2  0
  5  6  1  0
  6  7  2  0
  7  8  1  0
  8  9  1  0
  9 10  1  0
 10 11  2  0
 11 12  1  0
 12 13  2  0
 13 14  1  0
 14 15  2  0
  7  2  1  0
 15 10  1  0
  3 16  1  0
  4 17  1  0
  5 18  1  0
  6 19  1  0
  8 20  1  0
  8 21  1  0
  9 22  1  0
  9 23  1  0
 11 24  1  0
 12 25  1  0
 13 26  1  0
 14 27  1  0
 15 28  1  0
M  RAD  1   1   3
M  END
$$$$
