
     RDKit          3D

 28 29  0  0  0  0  0  0  0  0999 V2000
   -2.2217    2.1407   -0.5247 N   0  0  0  0  0  1  0  0  0  0  0  0
   -2.7137    0.8105   -0.3760 C   0  0  0  0  0  0  0  0  0  0  0  0
   -4.0803    0.6100   -0.1463 C   0  0  0  0  0  0  0  0  0  0  0  0
   -4.5845   -0.6823    0.0181 C   0  0  0  0  0  0  0  0  0  0  0  0
   -3.7249   -1.7810   -0.0416 C   0  0  0  0  0  0  0  0  0  0  0  0
   -2.3595   -1.5909   -0.2707 C   0  0  0  0  0  0  0  0  0  0  0  0
   -1.8415   -0.2966   -0.4529 C   0  0  0  0  0  0  0  0  0  0  0  0
   -0.3589   -0.1133   -0.6662 C   0  0  0  0  0  0  0  0  0  0  0  0
    0.3551    0.1090    0.6705 C   0  0  0  0  0  0  0  0  0  0  0  0
    1.8329    0.2958    0.4562 C   0  0  0  0  0  0  0  0  0  0  0  0
    2.6931   -0.8151    0.4407 C   0  0  0  0  0  0  0  0  0  0  0  0
    4.0613   -0.6428    0.2087 C   0  0  0  0  0  0  0  0  0  0  0  0
    4.5778    0.6359   -0.0187 C   0  0  0  0  0  0  0  0  0  0  0  0
    3.7262    1.7442   -0.0186 C   0  0  0  0  0  0  0  0  0  0  0  0
    2.3574    1.5763    0.2129 C   0  0  0  0  0  0  0  0  0  0  0  0
   -4.7525    1.4571   -0.0909 H   0  0  0  0  0  0  0  0  0  0  0  0
   -5.6415   -0.8318    0.1969 H   0  0  0  0  0  0  0  0  0  0  0  0
   -4.1163   -2.7811    0.0932 H   0  0  0  0  0  0  0  0  0  0  0  0
   -1.7050   -2.4532   -0.3046 H   0  0  0  0  0  0  0  0  0  0  0  0
    0.0641   -1.0118   -1.1681 H   0  0  0  0  0  0  0  0  0  0  0  0
   -0.1742    0.7496   -1.3427 H   0  0  0  0  0  0  0  0  0  0  0  0
   -0.0664    1.0044    1.1784 H   0  0  0  0  0  0  0  0  0  0  0  0
    0.1786   -0.7629    1.3386 H   0  0  0  0  0  0  0  0  0  0  0  0
    2.3039   -1.8121    0.6061 H   0  0  0  0  0  0  0  0  0  0  0  0
    4.7207   -1.5010    0.2017 H   0  0  0  0  0  0  0  0  0  0  0  0
    5.6369    0.7674   -0.1994 H   0  0  0  0  0  0  0  0  0  0  0  0
    4.1263    2.7331   -0.2015 H   0  0  0  0  0  0  0  0  0  0  0  0
    1.7066    2.4420    0.2010 H   0  0  0  0  0  0  0  0  0  0  0  0
  1  2  1  0
  2  3  2  0
  3  4  1  0
  4  5  2  0
  5  6  1  0
  6  7  2  0
  7  8  1  0
  8  9  1  0
  9 10  1  0
 10 11  2  0
 11 12  1  0
 12 13  2  0
 13 14  1  0
 14 15  2  0
  7  2  1  0
 15 10  1  0
  3 16  1  0
  4 17  1  0
  5 18  1  0
  6 19  1  0
  8 20  1  0
  8 21  1  0
  9 22  1  0
  9 23  1  0
 11 24  1  0
 12 25  1  0
 13 26  1  0
 14 27  1  0
 15 28  1  0
M  RAD  1   1   3
M  END
$$$$
