
     RDKit          3D

 28 29  0  0  0  0  0  0  0  0999 V2000
    2.0322   -2.4672   -1.6357 N   0  0  0  0  0  1  0  0  0  0  0  0
    2.1419   -1.4699   -0.6224 C   0  0  0  0  0  0  0  0  0  0  0  0
    2.9136   -1.7348    0.5154 C   0  0  0  0  0  0  0  0  0  0  0  0
    3.0277   -0.7785    1.5272 C   0  0  0  0  0  0  0  0  0  0  0  0
    2.3704    0.4473    1.4079 C   0  0  0  0  0  0  0  0  0  0  0  0
    1.5996    0.7216    0.2753 C   0  0  0  0  0  0  0  0  0  0  0  0
    1.4816   -0.2296   -0.7538 C   0  0  0  0  0  0  0  0  0  0  0  0
    0.6038    0.0693   -1.9476 C   0  0  0  0  0  0  0  0  0  0  0  0
   -0.7938   -0.5488   -1.7994 C   0  0  0  0  0  0  0  0  0  0  0  0
   -1.5494    0.0479   -0.6393 C   0  0  0  0  0  0  0  0  0  0  0  0
   -2.1889    1.2912   -0.7762 C   0  0  0  0  0  0  0  0  0  0  0  0
   -2.8520    1.8656    0.3126 C   0  0  0  0  0  0  0  0  0  0  0  0
   -2.8751    1.2076    1.5455 C   0  0  0  0  0  0  0  0  0  0  0  0
   -2.2335   -0.0253    1.6921 C   0  0  0  0  0  0  0  0  0  0  0  0
   -1.5706   -0.6039    0.6056 C   0  0  0  0  0  0  0  0  0  0  0  0
    3.4229   -2.6849    0.6180 H   0  0  0  0  0  0  0  0  0  0  0  0
    3.6234   -0.9893    2.4060 H   0  0  0  0  0  0  0  0  0  0  0  0
    2.4547    1.1847    2.1957 H   0  0  0  0  0  0  0  0  0  0  0  0
    1.0858    1.6725    0.2049 H   0  0  0  0  0  0  0  0  0  0  0  0
    0.5111    1.1678   -2.0961 H   0  0  0  0  0  0  0  0  0  0  0  0
    1.0797   -0.3298   -2.8691 H   0  0  0  0  0  0  0  0  0  0  0  0
   -1.3645   -0.3720   -2.7370 H   0  0  0  0  0  0  0  0  0  0  0  0
   -0.7089   -1.6513   -1.6817 H   0  0  0  0  0  0  0  0  0  0  0  0
   -2.1687    1.8159   -1.7234 H   0  0  0  0  0  0  0  0  0  0  0  0
   -3.3444    2.8230    0.2018 H   0  0  0  0  0  0  0  0  0  0  0  0
   -3.3866    1.6549    2.3879 H   0  0  0  0  0  0  0  0  0  0  0  0
   -2.2461   -0.5307    2.6491 H   0  0  0  0  0  0  0  0  0  0  0  0
   -1.0660   -1.5532    0.7367 H   0  0  0  0  0  0  0  0  0  0  0  0
  1  2  1  0
  2  3  2  0
  3  4  1  0
  4  5  2  0
  5  6  1  0
  6  7  2  0
  7  8  1  0
  8  9  1  0
  9 10  1  0
 10 11  2  0
 11 12  1  0
 12 13  2  0
 13 14  1  0
 14 15  2  0
  7  2  1  0
 15 10  1  0
  3 16  1  0
  4 17  1  0
  5 18  1  0
  6 19  1  0
  8 20  1  0
  8 21  1  0
  9 22  1  0
  9 23  1  0
 11 24  1  0
 12 25  1  0
 13 26  1  0
 14 27  1  0
 15 28  1  0
M  RAD  1   1   3
M  END
$$$$
