 xtb: 6.7.1 (edcfbbe)
          07312615203D

238259  0     0  0            999 V2000
    0.1625   -1.6908   -1.0220 N   0  0  0  0  0  0  0  0  0  0  0  0
   -0.0538   -0.9583    1.7225 N   0  0  0  0  0  0  0  0  0  0  0  0
   -0.4507   -0.9819   -3.3205 C   0  0  0  0  0  0  0  0  0  0  0  0
   -0.0025   -1.9143   -2.3649 C   0  0  0  0  0  0  0  0  0  0  0  0
    0.4149   -3.2692   -2.6912 C   0  0  0  0  0  0  0  0  0  0  0  0
    0.3774   -3.7036   -3.6910 H   0  0  0  0  0  0  0  0  0  0  0  0
    0.8555   -3.8352   -1.5313 C   0  0  0  0  0  0  0  0  0  0  0  0
    1.2574   -4.8372   -1.3750 H   0  0  0  0  0  0  0  0  0  0  0  0
    0.6630   -2.8510   -0.4794 C   0  0  0  0  0  0  0  0  0  0  0  0
    0.8652   -3.1115    0.8879 C   0  0  0  0  0  0  0  0  0  0  0  0
    0.4596   -2.2176    1.9033 C   0  0  0  0  0  0  0  0  0  0  0  0
    0.4056   -2.5674    3.3089 C   0  0  0  0  0  0  0  0  0  0  0  0
    0.7519   -3.5147    3.7251 H   0  0  0  0  0  0  0  0  0  0  0  0
   -0.1898   -1.5212    3.9566 C   0  0  0  0  0  0  0  0  0  0  0  0
   -0.4256   -1.4206    5.0168 H   0  0  0  0  0  0  0  0  0  0  0  0
   -0.4595   -0.5106    2.9528 C   0  0  0  0  0  0  0  0  0  0  0  0
    1.4247   -4.4479    1.2989 C   0  0  0  0  0  0  0  0  0  0  0  0
    2.7716   -4.5764    1.7131 C   0  0  0  0  0  0  0  0  0  0  0  0
    3.3033   -5.8196    2.1010 C   0  0  0  0  0  0  0  0  0  0  0  0
    2.4833   -6.9514    2.0677 C   0  0  0  0  0  0  0  0  0  0  0  0
    2.8970   -7.9259    2.3592 H   0  0  0  0  0  0  0  0  0  0  0  0
    1.1478   -6.8646    1.6664 C   0  0  0  0  0  0  0  0  0  0  0  0
    0.6206   -5.6133    1.2944 C   0  0  0  0  0  0  0  0  0  0  0  0
   -0.8327    1.6910    0.9444 N   0  0  0  0  0  0  0  0  0  0  0  0
   -0.5702    0.9504   -1.7865 N   0  0  0  0  0  0  0  0  0  0  0  0
   -1.0287    0.7523    3.2356 C   0  0  0  0  0  0  0  0  0  0  0  0
   -1.1361    1.7821    2.2780 C   0  0  0  0  0  0  0  0  0  0  0  0
   -1.5219    3.1456    2.6014 C   0  0  0  0  0  0  0  0  0  0  0  0
   -1.8296    3.4796    3.5931 H   0  0  0  0  0  0  0  0  0  0  0  0
   -1.3987    3.8757    1.4583 C   0  0  0  0  0  0  0  0  0  0  0  0
   -1.5933    4.9366    1.3019 H   0  0  0  0  0  0  0  0  0  0  0  0
   -1.0085    2.9546    0.4056 C   0  0  0  0  0  0  0  0  0  0  0  0
   -0.9215    3.3053   -0.9277 C   0  0  0  0  0  0  0  0  0  0  0  0
   -0.7420    2.3230   -1.9709 C   0  0  0  0  0  0  0  0  0  0  0  0
   -1.0172    2.5897   -3.3860 C   0  0  0  0  0  0  0  0  0  0  0  0
   -1.1963    3.5833   -3.7865 H   0  0  0  0  0  0  0  0  0  0  0  0
   -0.9820    1.3907   -4.0194 C   0  0  0  0  0  0  0  0  0  0  0  0
   -1.1407    1.1826   -5.0774 H   0  0  0  0  0  0  0  0  0  0  0  0
   -0.6768    0.3843   -3.0145 C   0  0  0  0  0  0  0  0  0  0  0  0
   -0.9976    4.7346   -1.3702 C   0  0  0  0  0  0  0  0  0  0  0  0
    0.1762    5.4295   -1.7524 C   0  0  0  0  0  0  0  0  0  0  0  0
    0.1217    6.7607   -2.2019 C   0  0  0  0  0  0  0  0  0  0  0  0
   -1.1138    7.4146   -2.2432 C   0  0  0  0  0  0  0  0  0  0  0  0
   -1.1607    8.4572   -2.5841 H   0  0  0  0  0  0  0  0  0  0  0  0
   -2.2907    6.7636   -1.8623 C   0  0  0  0  0  0  0  0  0  0  0  0
   -2.2325    5.4212   -1.4431 C   0  0  0  0  0  0  0  0  0  0  0  0
   -0.2283    0.0374   -0.0299 Fe  0  0  0  0  0  0  0  0  0  0  0  0
   -2.4508   -0.6161   -0.0198 Cl  0  0  0  0  0  0  0  0  0  0  0  0
   -1.5990    0.9877    4.6127 C   0  0  0  0  0  0  0  0  0  0  0  0
   -0.8260    1.5593    5.6586 C   0  0  0  0  0  0  0  0  0  0  0  0
   -2.9516    0.6230    4.8637 C   0  0  0  0  0  0  0  0  0  0  0  0
   -1.3927    1.7692    6.9319 C   0  0  0  0  0  0  0  0  0  0  0  0
    0.5161    1.9171    5.3670 N   0  0  0  0  0  0  0  0  0  0  0  0
   -3.5146    0.8576    6.1368 C   0  0  0  0  0  0  0  0  0  0  0  0
   -3.6843    0.0038    3.8234 N   0  0  0  0  0  0  0  0  0  0  0  0
   -0.7762    2.1970    7.7270 H   0  0  0  0  0  0  0  0  0  0  0  0
   -2.7297    1.4208    7.1465 C   0  0  0  0  0  0  0  0  0  0  0  0
    1.4973    2.3563    6.2259 C   0  0  0  0  0  0  0  0  0  0  0  0
    0.7771    1.7992    4.3862 H   0  0  0  0  0  0  0  0  0  0  0  0
   -4.5612    0.5923    6.3060 H   0  0  0  0  0  0  0  0  0  0  0  0
   -5.0101   -0.3824    3.8263 C   0  0  0  0  0  0  0  0  0  0  0  0
   -3.1621   -0.1849    2.9622 H   0  0  0  0  0  0  0  0  0  0  0  0
   -3.1736    1.5922    8.1357 H   0  0  0  0  0  0  0  0  0  0  0  0
    1.3646    2.4917    7.4378 O   0  0  0  0  0  0  0  0  0  0  0  0
    2.8138    2.6772    5.5492 C   0  0  0  0  0  0  0  0  0  0  0  0
   -5.8019   -0.1349    4.7311 O   0  0  0  0  0  0  0  0  0  0  0  0
   -5.4293   -1.1656    2.6054 C   0  0  0  0  0  0  0  0  0  0  0  0
    4.0828    2.3205    6.2791 C   0  0  0  0  0  0  0  0  0  0  0  0
    2.8554    2.6544    4.4552 H   0  0  0  0  0  0  0  0  0  0  0  0
    3.6504    3.7662    6.2311 C   0  0  0  0  0  0  0  0  0  0  0  0
   -6.7917   -0.8917    2.0185 C   0  0  0  0  0  0  0  0  0  0  0  0
   -4.6513   -1.4862    1.9031 H   0  0  0  0  0  0  0  0  0  0  0  0
   -6.5913   -2.1387    2.8466 C   0  0  0  0  0  0  0  0  0  0  0  0
    3.9788    1.8184    7.2440 H   0  0  0  0  0  0  0  0  0  0  0  0
    4.9416    2.0354    5.6681 H   0  0  0  0  0  0  0  0  0  0  0  0
    3.2225    4.1831    7.1461 H   0  0  0  0  0  0  0  0  0  0  0  0
    4.4107    4.7205    5.3646 C   0  0  0  0  0  0  0  0  0  0  0  0
   -7.3840   -0.1014    2.4884 H   0  0  0  0  0  0  0  0  0  0  0  0
   -6.8895   -1.0046    0.9353 H   0  0  0  0  0  0  0  0  0  0  0  0
   -7.0003   -2.1251    3.8617 H   0  0  0  0  0  0  0  0  0  0  0  0
   -6.5652   -3.4735    2.1810 C   0  0  0  0  0  0  0  0  0  0  0  0
    4.5005    5.9298    5.9443 O   0  0  0  0  0  0  0  0  0  0  0  0
    4.9014    4.4384    4.2884 O   0  0  0  0  0  0  0  0  0  0  0  0
   -7.1592   -4.4073    2.9570 O   0  0  0  0  0  0  0  0  0  0  0  0
   -6.0905   -3.7093    1.0883 O   0  0  0  0  0  0  0  0  0  0  0  0
    5.2260    6.9877    5.2490 C   0  0  0  0  0  0  0  0  0  0  0  0
   -7.2423   -5.7688    2.4501 C   0  0  0  0  0  0  0  0  0  0  0  0
    4.2284    7.8390    4.4519 C   0  0  0  0  0  0  0  0  0  0  0  0
    5.9901    7.7741    6.3131 C   0  0  0  0  0  0  0  0  0  0  0  0
    5.9230    6.4911    4.5509 H   0  0  0  0  0  0  0  0  0  0  0  0
   -7.2162   -6.6926    3.6689 C   0  0  0  0  0  0  0  0  0  0  0  0
   -8.5056   -5.9146    1.5943 C   0  0  0  0  0  0  0  0  0  0  0  0
   -6.3499   -5.9341    1.8169 H   0  0  0  0  0  0  0  0  0  0  0  0
    3.7155    7.2220    3.6956 H   0  0  0  0  0  0  0  0  0  0  0  0
    3.4793    8.2804    5.1226 H   0  0  0  0  0  0  0  0  0  0  0  0
    4.7585    8.6528    3.9381 H   0  0  0  0  0  0  0  0  0  0  0  0
    6.6774    7.1194    6.8640 H   0  0  0  0  0  0  0  0  0  0  0  0
    6.5814    8.5745    5.8485 H   0  0  0  0  0  0  0  0  0  0  0  0
    5.3014    8.2296    7.0361 H   0  0  0  0  0  0  0  0  0  0  0  0
   -6.2976   -6.5370    4.2493 H   0  0  0  0  0  0  0  0  0  0  0  0
   -8.0808   -6.5015    4.3223 H   0  0  0  0  0  0  0  0  0  0  0  0
   -7.2582   -7.7438    3.3521 H   0  0  0  0  0  0  0  0  0  0  0  0
   -8.4658   -5.2292    0.7367 H   0  0  0  0  0  0  0  0  0  0  0  0
   -8.5939   -6.9424    1.2156 H   0  0  0  0  0  0  0  0  0  0  0  0
   -9.4055   -5.6933    2.1882 H   0  0  0  0  0  0  0  0  0  0  0  0
   -0.6995   -1.4779   -4.7217 C   0  0  0  0  0  0  0  0  0  0  0  0
    0.2496   -1.2828   -5.7615 C   0  0  0  0  0  0  0  0  0  0  0  0
   -1.8984   -2.1908   -4.9995 C   0  0  0  0  0  0  0  0  0  0  0  0
    0.0370   -1.8459   -7.0352 C   0  0  0  0  0  0  0  0  0  0  0  0
    1.3872   -0.4878   -5.4683 N   0  0  0  0  0  0  0  0  0  0  0  0
   -2.0994   -2.7583   -6.2757 C   0  0  0  0  0  0  0  0  0  0  0  0
   -2.8750   -2.2612   -3.9790 N   0  0  0  0  0  0  0  0  0  0  0  0
    0.7842   -1.6894   -7.8184 H   0  0  0  0  0  0  0  0  0  0  0  0
   -1.1284   -2.5847   -7.2664 C   0  0  0  0  0  0  0  0  0  0  0  0
    2.3186    0.0425   -6.3335 C   0  0  0  0  0  0  0  0  0  0  0  0
    1.4105   -0.1401   -4.5082 H   0  0  0  0  0  0  0  0  0  0  0  0
   -3.0159   -3.3245   -6.4624 H   0  0  0  0  0  0  0  0  0  0  0  0
   -4.0984   -2.9002   -4.0007 C   0  0  0  0  0  0  0  0  0  0  0  0
   -2.6588   -1.7293   -3.1313 H   0  0  0  0  0  0  0  0  0  0  0  0
   -1.2898   -3.0305   -8.2565 H   0  0  0  0  0  0  0  0  0  0  0  0
    2.4178   -0.2384   -7.5221 O   0  0  0  0  0  0  0  0  0  0  0  0
    3.2155    1.0803   -5.6919 C   0  0  0  0  0  0  0  0  0  0  0  0
   -4.4787   -3.6418   -4.9014 O   0  0  0  0  0  0  0  0  0  0  0  0
   -4.9686   -2.5907   -2.8068 C   0  0  0  0  0  0  0  0  0  0  0  0
    3.5132    2.3150   -6.5064 C   0  0  0  0  0  0  0  0  0  0  0  0
    3.1623    1.2116   -4.6055 H   0  0  0  0  0  0  0  0  0  0  0  0
    4.5976    1.2809   -6.3135 C   0  0  0  0  0  0  0  0  0  0  0  0
   -5.8549   -3.6814   -2.2625 C   0  0  0  0  0  0  0  0  0  0  0  0
   -4.6091   -1.8500   -2.0828 H   0  0  0  0  0  0  0  0  0  0  0  0
   -6.4773   -2.5885   -3.0973 C   0  0  0  0  0  0  0  0  0  0  0  0
    3.0687    2.3682   -7.5037 H   0  0  0  0  0  0  0  0  0  0  0  0
    3.6175    3.2583   -5.9653 H   0  0  0  0  0  0  0  0  0  0  0  0
    4.8395    0.6443   -7.1685 H   0  0  0  0  0  0  0  0  0  0  0  0
    5.7277    1.6187   -5.3917 C   0  0  0  0  0  0  0  0  0  0  0  0
   -5.7845   -4.6600   -2.7446 H   0  0  0  0  0  0  0  0  0  0  0  0
   -6.0277   -3.6712   -1.1831 H   0  0  0  0  0  0  0  0  0  0  0  0
   -6.7513   -2.8477   -4.1246 H   0  0  0  0  0  0  0  0  0  0  0  0
   -7.3244   -1.5437   -2.4503 C   0  0  0  0  0  0  0  0  0  0  0  0
    6.8958    1.1616   -5.8717 O   0  0  0  0  0  0  0  0  0  0  0  0
    5.6079    2.2437   -4.3543 O   0  0  0  0  0  0  0  0  0  0  0  0
   -8.3309   -1.1662   -3.2684 O   0  0  0  0  0  0  0  0  0  0  0  0
   -7.1554   -1.0888   -1.3370 O   0  0  0  0  0  0  0  0  0  0  0  0
    8.1130    1.4249   -5.1128 C   0  0  0  0  0  0  0  0  0  0  0  0
   -9.2608   -0.1545   -2.7881 C   0  0  0  0  0  0  0  0  0  0  0  0
    9.0313    0.2194   -5.3210 C   0  0  0  0  0  0  0  0  0  0  0  0
    8.7172    2.7510   -5.5835 C   0  0  0  0  0  0  0  0  0  0  0  0
    7.8169    1.5114   -4.0499 H   0  0  0  0  0  0  0  0  0  0  0  0
   -8.7090    1.2410   -3.1068 C   0  0  0  0  0  0  0  0  0  0  0  0
  -10.6073   -0.4487   -3.4484 C   0  0  0  0  0  0  0  0  0  0  0  0
   -9.3285   -0.2746   -1.6915 H   0  0  0  0  0  0  0  0  0  0  0  0
    8.5354   -0.7007   -4.9849 H   0  0  0  0  0  0  0  0  0  0  0  0
    9.2957    0.1095   -6.3837 H   0  0  0  0  0  0  0  0  0  0  0  0
    9.9625    0.3495   -4.7531 H   0  0  0  0  0  0  0  0  0  0  0  0
    8.0148    3.5761   -5.4096 H   0  0  0  0  0  0  0  0  0  0  0  0
    9.6439    2.9657   -5.0339 H   0  0  0  0  0  0  0  0  0  0  0  0
    8.9613    2.7085   -6.6562 H   0  0  0  0  0  0  0  0  0  0  0  0
   -7.7436    1.3960   -2.5983 H   0  0  0  0  0  0  0  0  0  0  0  0
   -8.5665    1.3607   -4.1897 H   0  0  0  0  0  0  0  0  0  0  0  0
   -9.4117    2.0128   -2.7633 H   0  0  0  0  0  0  0  0  0  0  0  0
  -10.9495   -1.4634   -3.2006 H   0  0  0  0  0  0  0  0  0  0  0  0
  -11.3687    0.2636   -3.1033 H   0  0  0  0  0  0  0  0  0  0  0  0
  -10.5343   -0.3685   -4.5410 H   0  0  0  0  0  0  0  0  0  0  0  0
    4.3492   -5.8952    2.4208 H   0  0  0  0  0  0  0  0  0  0  0  0
    0.5133   -7.7580    1.6368 H   0  0  0  0  0  0  0  0  0  0  0  0
    1.0362    7.2730   -2.5216 H   0  0  0  0  0  0  0  0  0  0  0  0
   -3.2538    7.2866   -1.8910 H   0  0  0  0  0  0  0  0  0  0  0  0
    3.5100   -3.4135    1.7141 O   0  0  0  0  0  0  0  0  0  0  0  0
   -0.6734   -5.4417    0.8619 O   0  0  0  0  0  0  0  0  0  0  0  0
    1.3344    4.6831   -1.7246 O   0  0  0  0  0  0  0  0  0  0  0  0
   -3.3341    4.7126   -1.0291 O   0  0  0  0  0  0  0  0  0  0  0  0
    4.8485   -3.4362    2.1027 C   0  0  0  0  0  0  0  0  0  0  0  0
    5.8470   -3.7261    1.1611 C   0  0  0  0  0  0  0  0  0  0  0  0
    5.1854   -3.0870    3.4171 C   0  0  0  0  0  0  0  0  0  0  0  0
    7.1926   -3.6731    1.5479 C   0  0  0  0  0  0  0  0  0  0  0  0
    5.5595   -3.9837    0.1365 H   0  0  0  0  0  0  0  0  0  0  0  0
    6.5347   -3.0364    3.7919 C   0  0  0  0  0  0  0  0  0  0  0  0
    4.3834   -2.8550    4.1251 H   0  0  0  0  0  0  0  0  0  0  0  0
    7.5399   -3.3307    2.8615 C   0  0  0  0  0  0  0  0  0  0  0  0
    7.9763   -3.8984    0.8157 H   0  0  0  0  0  0  0  0  0  0  0  0
    6.8033   -2.7642    4.8188 H   0  0  0  0  0  0  0  0  0  0  0  0
    8.5962   -3.2916    3.1594 H   0  0  0  0  0  0  0  0  0  0  0  0
   -1.6374   -6.4256    1.0549 C   0  0  0  0  0  0  0  0  0  0  0  0
   -2.0038   -6.8502    2.3403 C   0  0  0  0  0  0  0  0  0  0  0  0
   -2.2965   -6.9266   -0.0763 C   0  0  0  0  0  0  0  0  0  0  0  0
   -3.0229   -7.7994    2.4856 C   0  0  0  0  0  0  0  0  0  0  0  0
   -1.4918   -6.4312    3.2131 H   0  0  0  0  0  0  0  0  0  0  0  0
   -3.3200   -7.8690    0.0835 C   0  0  0  0  0  0  0  0  0  0  0  0
   -1.9997   -6.5609   -1.0645 H   0  0  0  0  0  0  0  0  0  0  0  0
   -3.6818   -8.3134    1.3615 C   0  0  0  0  0  0  0  0  0  0  0  0
   -3.3091   -8.1365    3.4881 H   0  0  0  0  0  0  0  0  0  0  0  0
   -3.8374   -8.2607   -0.7990 H   0  0  0  0  0  0  0  0  0  0  0  0
   -4.4792   -9.0585    1.4825 H   0  0  0  0  0  0  0  0  0  0  0  0
    2.6032    5.2426   -1.6374 C   0  0  0  0  0  0  0  0  0  0  0  0
    2.9122    6.3196   -0.7933 C   0  0  0  0  0  0  0  0  0  0  0  0
    3.6157    4.6046   -2.3724 C   0  0  0  0  0  0  0  0  0  0  0  0
    4.2371    6.7676   -0.7079 C   0  0  0  0  0  0  0  0  0  0  0  0
    2.1231    6.7985   -0.2044 H   0  0  0  0  0  0  0  0  0  0  0  0
    4.9364    5.0531   -2.2695 C   0  0  0  0  0  0  0  0  0  0  0  0
    3.3624    3.7504   -3.0090 H   0  0  0  0  0  0  0  0  0  0  0  0
    5.2522    6.1417   -1.4435 C   0  0  0  0  0  0  0  0  0  0  0  0
    4.4783    7.6130   -0.0515 H   0  0  0  0  0  0  0  0  0  0  0  0
    5.7114    4.5346   -2.8445 H   0  0  0  0  0  0  0  0  0  0  0  0
    6.2869    6.5011   -1.3683 H   0  0  0  0  0  0  0  0  0  0  0  0
   -4.6244    5.0963   -1.3784 C   0  0  0  0  0  0  0  0  0  0  0  0
   -5.0045    5.2803   -2.7157 C   0  0  0  0  0  0  0  0  0  0  0  0
   -5.5689    5.2085   -0.3482 C   0  0  0  0  0  0  0  0  0  0  0  0
   -6.3353    5.5977   -3.0141 C   0  0  0  0  0  0  0  0  0  0  0  0
   -4.2598    5.1674   -3.5106 H   0  0  0  0  0  0  0  0  0  0  0  0
   -6.8981    5.5188   -0.6612 C   0  0  0  0  0  0  0  0  0  0  0  0
   -5.2452    5.0413    0.6839 H   0  0  0  0  0  0  0  0  0  0  0  0
   -7.2851    5.7206   -1.9920 C   0  0  0  0  0  0  0  0  0  0  0  0
   -6.6355    5.7420   -4.0576 H   0  0  0  0  0  0  0  0  0  0  0  0
   -7.6376    5.6051    0.1422 H   0  0  0  0  0  0  0  0  0  0  0  0
   -8.3273    5.9682   -2.2334 H   0  0  0  0  0  0  0  0  0  0  0  0
    1.4207    0.4636    0.1281 N   0  0  0  0  0  0  0  0  0  0  0  0
    2.5873    0.5701    0.5896 C   0  0  0  0  0  0  0  0  0  0  0  0
    1.0432    5.1105    4.0390 C   0  0  0  0  0  0  0  0  0  0  0  0
    1.2353    4.0285    3.1313 O   0  0  0  0  0  0  0  0  0  0  0  0
    2.2235    4.1383    2.2279 C   0  0  0  0  0  0  0  0  0  0  0  0
    2.9951    5.0675    2.1983 O   0  0  0  0  0  0  0  0  0  0  0  0
    2.1539    3.0254    1.2506 C   0  0  0  0  0  0  0  0  0  0  0  0
    3.1405    2.9749    0.1355 C   0  0  0  0  0  0  0  0  0  0  0  0
    3.1311    1.8582    1.1596 C   0  0  0  0  0  0  0  0  0  0  0  0
    4.3131    1.7741    2.0194 C   0  0  0  0  0  0  0  0  0  0  0  0
    5.1074    0.6965    1.9608 C   0  0  0  0  0  0  0  0  0  0  0  0
    4.7623   -0.4103    1.1149 C   0  0  0  0  0  0  0  0  0  0  0  0
    3.5760   -0.4863    0.4829 C   0  0  0  0  0  0  0  0  0  0  0  0
    2.0038    5.5323    4.3386 H   0  0  0  0  0  0  0  0  0  0  0  0
    0.5216    4.7041    4.9013 H   0  0  0  0  0  0  0  0  0  0  0  0
    0.4392    5.8833    3.5611 H   0  0  0  0  0  0  0  0  0  0  0  0
    1.1397    2.7238    1.0438 H   0  0  0  0  0  0  0  0  0  0  0  0
    0.3627    2.6354   -2.0814 H   0  0  0  0  0  0  0  0  0  0  0  0
    2.7878    2.7253   -0.8496 H   0  0  0  0  0  0  0  0  0  0  0  0
    3.9602    3.6755    0.1802 H   0  0  0  0  0  0  0  0  0  0  0  0
    4.5581    2.6418    2.6150 H   0  0  0  0  0  0  0  0  0  0  0  0
    6.0143    0.6373    2.5414 H   0  0  0  0  0  0  0  0  0  0  0  0
    5.4775   -1.2114    1.0225 H   0  0  0  0  0  0  0  0  0  0  0  0
    3.2869   -1.3572   -0.0837 H   0  0  0  0  0  0  0  0  0  0  0  0
  1  4  4  0  0  0  0
  3  4  4  0  0  0  0
  4  5  1  0  0  0  0
  5  6  1  0  0  0  0
  5  7  2  0  0  0  0
  7  8  1  0  0  0  0
  1  9  4  0  0  0  0
  7  9  1  0  0  0  0
  9 10  4  0  0  0  0
  2 11  4  0  0  0  0
 10 11  4  0  0  0  0
 11 12  1  0  0  0  0
 12 13  1  0  0  0  0
 12 14  2  0  0  0  0
 14 15  1  0  0  0  0
  2 16  4  0  0  0  0
 14 16  1  0  0  0  0
 10 17  1  0  0  0  0
 17 18  4  0  0  0  0
 18 19  4  0  0  0  0
 19 20  4  0  0  0  0
 20 21  1  0  0  0  0
 20 22  4  0  0  0  0
 17 23  4  0  0  0  0
 22 23  4  0  0  0  0
 16 26  4  0  0  0  0
 24 27  4  0  0  0  0
 26 27  4  0  0  0  0
 27 28  1  0  0  0  0
 28 29  1  0  0  0  0
 28 30  2  0  0  0  0
 30 31  1  0  0  0  0
 24 32  1  0  0  0  0
 30 32  1  0  0  0  0
 32 33  4  0  0  0  0
 25 34  1  0  0  0  0
 33 34  1  0  0  0  0
 34 35  1  0  0  0  0
 35 36  1  0  0  0  0
 35 37  2  0  0  0  0
 37 38  1  0  0  0  0
  3 39  4  0  0  0  0
 25 39  4  0  0  0  0
 37 39  1  0  0  0  0
 33 40  1  0  0  0  0
 40 41  4  0  0  0  0
 41 42  4  0  0  0  0
 42 43  4  0  0  0  0
 43 44  1  0  0  0  0
 43 45  4  0  0  0  0
 40 46  4  0  0  0  0
 45 46  4  0  0  0  0
  1 47  1  0  0  0  0
  2 47  1  0  0  0  0
 24 47  1  0  0  0  0
 25 47  1  0  0  0  0
 47 48  1  0  0  0  0
 26 49  1  0  0  0  0
 49 50  4  0  0  0  0
 49 51  4  0  0  0  0
 50 52  4  0  0  0  0
 50 53  1  0  0  0  0
 51 54  4  0  0  0  0
 51 55  1  0  0  0  0
 52 56  1  0  0  0  0
 52 57  4  0  0  0  0
 54 57  4  0  0  0  0
 53 58  4  0  0  0  0
 53 59  1  0  0  0  0
 54 60  1  0  0  0  0
 55 61  4  0  0  0  0
 55 62  1  0  0  0  0
 57 63  1  0  0  0  0
 58 64  2  0  0  0  0
 58 65  1  0  0  0  0
 61 66  2  0  0  0  0
 61 67  1  0  0  0  0
 65 68  1  0  0  0  0
 65 69  1  0  0  0  0
 65 70  1  0  0  0  0
 68 70  1  0  0  0  0
 67 71  1  0  0  0  0
 67 72  1  0  0  0  0
 67 73  1  0  0  0  0
 71 73  1  0  0  0  0
 68 74  1  0  0  0  0
 68 75  1  0  0  0  0
 70 76  1  0  0  0  0
 70 77  1  0  0  0  0
 71 78  1  0  0  0  0
 71 79  1  0  0  0  0
 73 80  1  0  0  0  0
 73 81  1  0  0  0  0
 77 82  1  0  0  0  0
 77 83  2  0  0  0  0
 81 84  1  0  0  0  0
 81 85  2  0  0  0  0
 82 86  1  0  0  0  0
 84 87  1  0  0  0  0
 86 88  1  0  0  0  0
 86 89  1  0  0  0  0
 86 90  1  0  0  0  0
 87 91  1  0  0  0  0
 87 92  1  0  0  0  0
 87 93  1  0  0  0  0
 88 94  1  0  0  0  0
 88 95  1  0  0  0  0
 88 96  1  0  0  0  0
 89 97  1  0  0  0  0
 89 98  1  0  0  0  0
 89 99  1  0  0  0  0
 91100  1  0  0  0  0
 91101  1  0  0  0  0
 91102  1  0  0  0  0
 92103  1  0  0  0  0
 92104  1  0  0  0  0
 92105  1  0  0  0  0
  3106  1  0  0  0  0
106107  4  0  0  0  0
106108  4  0  0  0  0
107109  4  0  0  0  0
107110  1  0  0  0  0
108111  4  0  0  0  0
108112  1  0  0  0  0
109113  1  0  0  0  0
109114  4  0  0  0  0
111114  4  0  0  0  0
110115  4  0  0  0  0
110116  1  0  0  0  0
111117  1  0  0  0  0
112118  4  0  0  0  0
112119  1  0  0  0  0
114120  1  0  0  0  0
115121  2  0  0  0  0
115122  1  0  0  0  0
118123  2  0  0  0  0
118124  1  0  0  0  0
122125  1  0  0  0  0
122126  1  0  0  0  0
122127  1  0  0  0  0
125127  1  0  0  0  0
124128  1  0  0  0  0
124129  1  0  0  0  0
124130  1  0  0  0  0
128130  1  0  0  0  0
125131  1  0  0  0  0
125132  1  0  0  0  0
127133  1  0  0  0  0
127134  1  0  0  0  0
128135  1  0  0  0  0
128136  1  0  0  0  0
130137  1  0  0  0  0
130138  1  0  0  0  0
134139  1  0  0  0  0
134140  2  0  0  0  0
138141  1  0  0  0  0
138142  2  0  0  0  0
139143  1  0  0  0  0
141144  1  0  0  0  0
143145  1  0  0  0  0
143146  1  0  0  0  0
143147  1  0  0  0  0
144148  1  0  0  0  0
144149  1  0  0  0  0
144150  1  0  0  0  0
145151  1  0  0  0  0
145152  1  0  0  0  0
145153  1  0  0  0  0
146154  1  0  0  0  0
146155  1  0  0  0  0
146156  1  0  0  0  0
148157  1  0  0  0  0
148158  1  0  0  0  0
148159  1  0  0  0  0
149160  1  0  0  0  0
149161  1  0  0  0  0
149162  1  0  0  0  0
 19163  1  0  0  0  0
 22164  1  0  0  0  0
 42165  1  0  0  0  0
 45166  1  0  0  0  0
 18167  1  0  0  0  0
 23168  1  0  0  0  0
 41169  1  0  0  0  0
 46170  1  0  0  0  0
167171  1  0  0  0  0
171172  4  0  0  0  0
171173  4  0  0  0  0
172174  4  0  0  0  0
172175  1  0  0  0  0
173176  4  0  0  0  0
173177  1  0  0  0  0
174178  4  0  0  0  0
176178  4  0  0  0  0
174179  1  0  0  0  0
176180  1  0  0  0  0
178181  1  0  0  0  0
168182  1  0  0  0  0
182183  4  0  0  0  0
182184  4  0  0  0  0
183185  4  0  0  0  0
183186  1  0  0  0  0
184187  4  0  0  0  0
184188  1  0  0  0  0
185189  4  0  0  0  0
187189  4  0  0  0  0
185190  1  0  0  0  0
187191  1  0  0  0  0
189192  1  0  0  0  0
169193  1  0  0  0  0
193194  4  0  0  0  0
193195  4  0  0  0  0
194196  4  0  0  0  0
194197  1  0  0  0  0
195198  4  0  0  0  0
195199  1  0  0  0  0
196200  4  0  0  0  0
198200  4  0  0  0  0
196201  1  0  0  0  0
198202  1  0  0  0  0
200203  1  0  0  0  0
170204  1  0  0  0  0
204205  4  0  0  0  0
204206  4  0  0  0  0
205207  4  0  0  0  0
205208  1  0  0  0  0
206209  4  0  0  0  0
206210  1  0  0  0  0
207211  4  0  0  0  0
209211  4  0  0  0  0
207212  1  0  0  0  0
209213  1  0  0  0  0
211214  1  0  0  0  0
 47215  1  0  0  0  0
215216  2  0  0  0  0
217218  1  0  0  0  0
218219  1  0  0  0  0
219220  2  0  0  0  0
219221  1  0  0  0  0
221222  1  0  0  0  0
216223  1  0  0  0  0
221223  1  0  0  0  0
222223  1  0  0  0  0
223224  1  0  0  0  0
224225  2  0  0  0  0
225226  1  0  0  0  0
216227  1  0  0  0  0
226227  2  0  0  0  0
217228  1  0  0  0  0
217229  1  0  0  0  0
217230  1  0  0  0  0
221231  1  0  0  0  0
 34232  1  0  0  0  0
222233  1  0  0  0  0
222234  1  0  0  0  0
224235  1  0  0  0  0
225236  1  0  0  0  0
226237  1  0  0  0  0
227238  1  0  0  0  0
M  END
