
     RDKit          3D

 31 32  0  0  0  0  0  0  0  0999 V2000
    2.4818    2.2782    0.2448 C   0  0  0  0  0  0  0  0  0  0  0  0
    2.2263    0.8336    0.5572 C   0  0  0  0  0  0  0  0  0  0  0  0
    2.7645    0.2546    1.7147 C   0  0  0  0  0  0  0  0  0  0  0  0
    2.4824   -1.0757    2.0326 C   0  0  0  0  0  0  0  0  0  0  0  0
    1.6498   -1.8386    1.2072 C   0  0  0  0  0  0  0  0  0  0  0  0
    1.3637   -3.1888    1.5659 N   0  0  0  0  0  1  0  0  0  0  0  0
    1.0947   -1.2668    0.0441 C   0  0  0  0  0  0  0  0  0  0  0  0
    0.1378   -2.0434   -0.8315 C   0  0  0  0  0  0  0  0  0  0  0  0
   -1.2925   -2.0213   -0.2732 C   0  0  0  0  0  0  0  0  0  0  0  0
   -1.8618   -0.6253   -0.2491 C   0  0  0  0  0  0  0  0  0  0  0  0
   -1.8167    0.1400    0.9289 C   0  0  0  0  0  0  0  0  0  0  0  0
   -2.2952    1.4537    0.9339 C   0  0  0  0  0  0  0  0  0  0  0  0
   -2.8182    2.0130   -0.2351 C   0  0  0  0  0  0  0  0  0  0  0  0
   -2.8608    1.2605   -1.4121 C   0  0  0  0  0  0  0  0  0  0  0  0
   -2.3812   -0.0530   -1.4221 C   0  0  0  0  0  0  0  0  0  0  0  0
    1.3821    0.0742   -0.2657 C   0  0  0  0  0  0  0  0  0  0  0  0
    1.6791    2.8997    0.6938 H   0  0  0  0  0  0  0  0  0  0  0  0
    2.4962    2.4430   -0.8537 H   0  0  0  0  0  0  0  0  0  0  0  0
    3.4628    2.6021    0.6532 H   0  0  0  0  0  0  0  0  0  0  0  0
    3.3992    0.8340    2.3739 H   0  0  0  0  0  0  0  0  0  0  0  0
    2.9049   -1.5114    2.9294 H   0  0  0  0  0  0  0  0  0  0  0  0
    0.1399   -1.6343   -1.8660 H   0  0  0  0  0  0  0  0  0  0  0  0
    0.4778   -3.0981   -0.9142 H   0  0  0  0  0  0  0  0  0  0  0  0
   -1.3059   -2.4638    0.7469 H   0  0  0  0  0  0  0  0  0  0  0  0
   -1.9355   -2.6676   -0.9095 H   0  0  0  0  0  0  0  0  0  0  0  0
   -1.4001   -0.2759    1.8380 H   0  0  0  0  0  0  0  0  0  0  0  0
   -2.2558    2.0397    1.8429 H   0  0  0  0  0  0  0  0  0  0  0  0
   -3.1866    3.0307   -0.2300 H   0  0  0  0  0  0  0  0  0  0  0  0
   -3.2606    1.6968   -2.3182 H   0  0  0  0  0  0  0  0  0  0  0  0
   -2.4076   -0.6216   -2.3434 H   0  0  0  0  0  0  0  0  0  0  0  0
    0.9355    0.5320   -1.1409 H   0  0  0  0  0  0  0  0  0  0  0  0
  1  2  1  0
  2  3  1  0
  3  4  2  0
  4  5  1  0
  5  6  1  0
  5  7  2  0
  7  8  1  0
  8  9  1  0
  9 10  1  0
 10 11  2  0
 11 12  1  0
 12 13  2  0
 13 14  1  0
 14 15  2  0
  7 16  1  0
 16  2  2  0
 15 10  1  0
  1 17  1  0
  1 18  1  0
  1 19  1  0
  3 20  1  0
  4 21  1  0
  8 22  1  0
  8 23  1  0
  9 24  1  0
  9 25  1  0
 11 26  1  0
 12 27  1  0
 13 28  1  0
 14 29  1  0
 15 30  1  0
 16 31  1  0
M  RAD  1   6   3
M  END
$$$$
