
     RDKit          3D

 31 32  0  0  0  0  0  0  0  0999 V2000
    4.3700    1.8309   -0.4856 C   0  0  0  0  0  0  0  0  0  0  0  0
    3.5277    0.6132   -0.2445 C   0  0  0  0  0  0  0  0  0  0  0  0
    4.1238   -0.5877    0.1644 C   0  0  0  0  0  0  0  0  0  0  0  0
    3.3436   -1.7287    0.3630 C   0  0  0  0  0  0  0  0  0  0  0  0
    1.9635   -1.6893    0.1386 C   0  0  0  0  0  0  0  0  0  0  0  0
    1.1889   -2.8652    0.3645 N   0  0  0  0  0  1  0  0  0  0  0  0
    1.3555   -0.4971   -0.3066 C   0  0  0  0  0  0  0  0  0  0  0  0
   -0.1340   -0.4157   -0.5354 C   0  0  0  0  0  0  0  0  0  0  0  0
   -0.8608   -0.0630    0.7658 C   0  0  0  0  0  0  0  0  0  0  0  0
   -2.3463    0.0157    0.5375 C   0  0  0  0  0  0  0  0  0  0  0  0
   -3.1440   -1.1343    0.6607 C   0  0  0  0  0  0  0  0  0  0  0  0
   -4.5192   -1.0667    0.4161 C   0  0  0  0  0  0  0  0  0  0  0  0
   -5.1048    0.1448    0.0381 C   0  0  0  0  0  0  0  0  0  0  0  0
   -4.3155    1.2899   -0.1001 C   0  0  0  0  0  0  0  0  0  0  0  0
   -2.9399    1.2267    0.1435 C   0  0  0  0  0  0  0  0  0  0  0  0
    2.1466    0.6505   -0.4887 C   0  0  0  0  0  0  0  0  0  0  0  0
    5.2625    1.8286    0.1760 H   0  0  0  0  0  0  0  0  0  0  0  0
    3.7906    2.7553   -0.2759 H   0  0  0  0  0  0  0  0  0  0  0  0
    4.7040    1.8449   -1.5440 H   0  0  0  0  0  0  0  0  0  0  0  0
    5.1921   -0.6396    0.3356 H   0  0  0  0  0  0  0  0  0  0  0  0
    3.8141   -2.6465    0.6931 H   0  0  0  0  0  0  0  0  0  0  0  0
   -0.5138   -1.3828   -0.9314 H   0  0  0  0  0  0  0  0  0  0  0  0
   -0.3562    0.3559   -1.3057 H   0  0  0  0  0  0  0  0  0  0  0  0
   -0.4869    0.9115    1.1510 H   0  0  0  0  0  0  0  0  0  0  0  0
   -0.6404   -0.8304    1.5403 H   0  0  0  0  0  0  0  0  0  0  0  0
   -2.7008   -2.0811    0.9437 H   0  0  0  0  0  0  0  0  0  0  0  0
   -5.1304   -1.9543    0.5162 H   0  0  0  0  0  0  0  0  0  0  0  0
   -6.1691    0.1951   -0.1522 H   0  0  0  0  0  0  0  0  0  0  0  0
   -4.7690    2.2260   -0.3995 H   0  0  0  0  0  0  0  0  0  0  0  0
   -2.3378    2.1189    0.0237 H   0  0  0  0  0  0  0  0  0  0  0  0
    1.6860    1.5745   -0.8186 H   0  0  0  0  0  0  0  0  0  0  0  0
  1  2  1  0
  2  3  1  0
  3  4  2  0
  4  5  1  0
  5  6  1  0
  5  7  2  0
  7  8  1  0
  8  9  1  0
  9 10  1  0
 10 11  2  0
 11 12  1  0
 12 13  2  0
 13 14  1  0
 14 15  2  0
  7 16  1  0
 16  2  2  0
 15 10  1  0
  1 17  1  0
  1 18  1  0
  1 19  1  0
  3 20  1  0
  4 21  1  0
  8 22  1  0
  8 23  1  0
  9 24  1  0
  9 25  1  0
 11 26  1  0
 12 27  1  0
 13 28  1  0
 14 29  1  0
 15 30  1  0
 16 31  1  0
M  RAD  1   6   3
M  END
$$$$
