
     RDKit          3D

 31 32  0  0  0  0  0  0  0  0999 V2000
    4.4218    1.2844   -1.1304 C   0  0  0  0  0  0  0  0  0  0  0  0
    3.5405    0.2972   -0.4239 C   0  0  0  0  0  0  0  0  0  0  0  0
    4.0608   -0.9307    0.0081 C   0  0  0  0  0  0  0  0  0  0  0  0
    3.2478   -1.8387    0.6896 C   0  0  0  0  0  0  0  0  0  0  0  0
    1.9124   -1.5248    0.9634 C   0  0  0  0  0  0  0  0  0  0  0  0
    1.1008   -2.4775    1.6470 N   0  0  0  0  0  1  0  0  0  0  0  0
    1.3853   -0.2787    0.5654 C   0  0  0  0  0  0  0  0  0  0  0  0
   -0.0573    0.0805    0.8253 C   0  0  0  0  0  0  0  0  0  0  0  0
   -0.9529   -0.4326   -0.3063 C   0  0  0  0  0  0  0  0  0  0  0  0
   -2.3916   -0.0762   -0.0453 C   0  0  0  0  0  0  0  0  0  0  0  0
   -3.2116   -0.9401    0.6999 C   0  0  0  0  0  0  0  0  0  0  0  0
   -4.5389   -0.5923    0.9697 C   0  0  0  0  0  0  0  0  0  0  0  0
   -5.0530    0.6221    0.5068 C   0  0  0  0  0  0  0  0  0  0  0  0
   -4.2392    1.4930   -0.2232 C   0  0  0  0  0  0  0  0  0  0  0  0
   -2.9113    1.1491   -0.4952 C   0  0  0  0  0  0  0  0  0  0  0  0
    2.2069    0.6225   -0.1338 C   0  0  0  0  0  0  0  0  0  0  0  0
    3.8295    1.8988   -1.8416 H   0  0  0  0  0  0  0  0  0  0  0  0
    4.8990    1.9532   -0.3841 H   0  0  0  0  0  0  0  0  0  0  0  0
    5.2142    0.7614   -1.7072 H   0  0  0  0  0  0  0  0  0  0  0  0
    5.0945   -1.1880   -0.1880 H   0  0  0  0  0  0  0  0  0  0  0  0
    3.6577   -2.7900    1.0051 H   0  0  0  0  0  0  0  0  0  0  0  0
   -0.3896   -0.3486    1.7958 H   0  0  0  0  0  0  0  0  0  0  0  0
   -0.1621    1.1850    0.9099 H   0  0  0  0  0  0  0  0  0  0  0  0
   -0.6248    0.0096   -1.2730 H   0  0  0  0  0  0  0  0  0  0  0  0
   -0.8503   -1.5366   -0.3967 H   0  0  0  0  0  0  0  0  0  0  0  0
   -2.8224   -1.8797    1.0723 H   0  0  0  0  0  0  0  0  0  0  0  0
   -5.1681   -1.2629    1.5407 H   0  0  0  0  0  0  0  0  0  0  0  0
   -6.0801    0.8904    0.7176 H   0  0  0  0  0  0  0  0  0  0  0  0
   -4.6364    2.4362   -0.5754 H   0  0  0  0  0  0  0  0  0  0  0  0
   -2.2883    1.8368   -1.0538 H   0  0  0  0  0  0  0  0  0  0  0  0
    1.8068    1.5773   -0.4546 H   0  0  0  0  0  0  0  0  0  0  0  0
  1  2  1  0
  2  3  1  0
  3  4  2  0
  4  5  1  0
  5  6  1  0
  5  7  2  0
  7  8  1  0
  8  9  1  0
  9 10  1  0
 10 11  2  0
 11 12  1  0
 12 13  2  0
 13 14  1  0
 14 15  2  0
  7 16  1  0
 16  2  2  0
 15 10  1  0
  1 17  1  0
  1 18  1  0
  1 19  1  0
  3 20  1  0
  4 21  1  0
  8 22  1  0
  8 23  1  0
  9 24  1  0
  9 25  1  0
 11 26  1  0
 12 27  1  0
 13 28  1  0
 14 29  1  0
 15 30  1  0
 16 31  1  0
M  RAD  1   6   3
M  END
$$$$
