
     RDKit          3D

 31 32  0  0  0  0  0  0  0  0999 V2000
    2.6496    1.6412    1.3344 C   0  0  0  0  0  0  0  0  0  0  0  0
    2.1967    0.2754    0.9107 C   0  0  0  0  0  0  0  0  0  0  0  0
    2.6034   -0.8589    1.6267 C   0  0  0  0  0  0  0  0  0  0  0  0
    2.1969   -2.1312    1.2191 C   0  0  0  0  0  0  0  0  0  0  0  0
    1.3914   -2.2870    0.0862 C   0  0  0  0  0  0  0  0  0  0  0  0
    0.9768   -3.5964   -0.2973 N   0  0  0  0  0  1  0  0  0  0  0  0
    0.9993   -1.1571   -0.6606 C   0  0  0  0  0  0  0  0  0  0  0  0
    0.0921   -1.2878   -1.8628 C   0  0  0  0  0  0  0  0  0  0  0  0
   -1.3852   -1.3829   -1.4550 C   0  0  0  0  0  0  0  0  0  0  0  0
   -1.8584   -0.1252   -0.7712 C   0  0  0  0  0  0  0  0  0  0  0  0
   -1.8909   -0.0485    0.6319 C   0  0  0  0  0  0  0  0  0  0  0  0
   -2.2781    1.1371    1.2634 C   0  0  0  0  0  0  0  0  0  0  0  0
   -2.6318    2.2537    0.5010 C   0  0  0  0  0  0  0  0  0  0  0  0
   -2.5960    2.1873   -0.8946 C   0  0  0  0  0  0  0  0  0  0  0  0
   -2.2073    1.0041   -1.5303 C   0  0  0  0  0  0  0  0  0  0  0  0
    1.4100    0.1200   -0.2398 C   0  0  0  0  0  0  0  0  0  0  0  0
    2.8346    1.6733    2.4293 H   0  0  0  0  0  0  0  0  0  0  0  0
    3.5876    1.9011    0.8009 H   0  0  0  0  0  0  0  0  0  0  0  0
    1.8739    2.4000    1.0958 H   0  0  0  0  0  0  0  0  0  0  0  0
    3.2301   -0.7584    2.5043 H   0  0  0  0  0  0  0  0  0  0  0  0
    2.5072   -2.9986    1.7882 H   0  0  0  0  0  0  0  0  0  0  0  0
    0.2335   -0.4252   -2.5510 H   0  0  0  0  0  0  0  0  0  0  0  0
    0.3667   -2.1953   -2.4425 H   0  0  0  0  0  0  0  0  0  0  0  0
   -1.9979   -1.5565   -2.3662 H   0  0  0  0  0  0  0  0  0  0  0  0
   -1.5381   -2.2649   -0.7951 H   0  0  0  0  0  0  0  0  0  0  0  0
   -1.6048   -0.9015    1.2349 H   0  0  0  0  0  0  0  0  0  0  0  0
   -2.2992    1.1919    2.3441 H   0  0  0  0  0  0  0  0  0  0  0  0
   -2.9297    3.1713    0.9915 H   0  0  0  0  0  0  0  0  0  0  0  0
   -2.8645    3.0544   -1.4839 H   0  0  0  0  0  0  0  0  0  0  0  0
   -2.1712    0.9689   -2.6121 H   0  0  0  0  0  0  0  0  0  0  0  0
    1.1033    0.9958   -0.8000 H   0  0  0  0  0  0  0  0  0  0  0  0
  1  2  1  0
  2  3  1  0
  3  4  2  0
  4  5  1  0
  5  6  1  0
  5  7  2  0
  7  8  1  0
  8  9  1  0
  9 10  1  0
 10 11  2  0
 11 12  1  0
 12 13  2  0
 13 14  1  0
 14 15  2  0
  7 16  1  0
 16  2  2  0
 15 10  1  0
  1 17  1  0
  1 18  1  0
  1 19  1  0
  3 20  1  0
  4 21  1  0
  8 22  1  0
  8 23  1  0
  9 24  1  0
  9 25  1  0
 11 26  1  0
 12 27  1  0
 13 28  1  0
 14 29  1  0
 15 30  1  0
 16 31  1  0
M  RAD  1   6   3
M  END
$$$$
