
     RDKit          3D

 31 32  0  0  0  0  0  0  0  0999 V2000
    4.2735    1.4202    1.4773 C   0  0  0  0  0  0  0  0  0  0  0  0
    3.4942    0.5906    0.5001 C   0  0  0  0  0  0  0  0  0  0  0  0
    4.1463   -0.3625   -0.2943 C   0  0  0  0  0  0  0  0  0  0  0  0
    3.4257   -1.1161   -1.2232 C   0  0  0  0  0  0  0  0  0  0  0  0
    2.0506   -0.9149   -1.3826 C   0  0  0  0  0  0  0  0  0  0  0  0
    1.3370   -1.7097   -2.3274 N   0  0  0  0  0  1  0  0  0  0  0  0
    1.3879    0.0650   -0.6146 C   0  0  0  0  0  0  0  0  0  0  0  0
   -0.0985    0.2902   -0.7464 C   0  0  0  0  0  0  0  0  0  0  0  0
   -0.8714   -0.6623    0.1707 C   0  0  0  0  0  0  0  0  0  0  0  0
   -2.3537   -0.4389    0.0371 C   0  0  0  0  0  0  0  0  0  0  0  0
   -3.0041    0.5064    0.8478 C   0  0  0  0  0  0  0  0  0  0  0  0
   -4.3756    0.7363    0.6995 C   0  0  0  0  0  0  0  0  0  0  0  0
   -5.1037    0.0326   -0.2639 C   0  0  0  0  0  0  0  0  0  0  0  0
   -4.4609   -0.8992   -1.0835 C   0  0  0  0  0  0  0  0  0  0  0  0
   -3.0896   -1.1321   -0.9386 C   0  0  0  0  0  0  0  0  0  0  0  0
    2.1187    0.8078    0.3288 C   0  0  0  0  0  0  0  0  0  0  0  0
    4.6289    2.3444    0.9757 H   0  0  0  0  0  0  0  0  0  0  0  0
    3.6399    1.6998    2.3459 H   0  0  0  0  0  0  0  0  0  0  0  0
    5.1503    0.8558    1.8605 H   0  0  0  0  0  0  0  0  0  0  0  0
    5.2118   -0.5268   -0.1906 H   0  0  0  0  0  0  0  0  0  0  0  0
    3.9386   -1.8596   -1.8206 H   0  0  0  0  0  0  0  0  0  0  0  0
   -0.3459    1.3424   -0.4822 H   0  0  0  0  0  0  0  0  0  0  0  0
   -0.4160    0.1413   -1.8016 H   0  0  0  0  0  0  0  0  0  0  0  0
   -0.6260   -1.7161   -0.0879 H   0  0  0  0  0  0  0  0  0  0  0  0
   -0.5599   -0.5005    1.2264 H   0  0  0  0  0  0  0  0  0  0  0  0
   -2.4494    1.0650    1.5916 H   0  0  0  0  0  0  0  0  0  0  0  0
   -4.8732    1.4625    1.3291 H   0  0  0  0  0  0  0  0  0  0  0  0
   -6.1649    0.2126   -0.3782 H   0  0  0  0  0  0  0  0  0  0  0  0
   -5.0245   -1.4386   -1.8338 H   0  0  0  0  0  0  0  0  0  0  0  0
   -2.6014   -1.8498   -1.5863 H   0  0  0  0  0  0  0  0  0  0  0  0
    1.6153    1.5543    0.9323 H   0  0  0  0  0  0  0  0  0  0  0  0
  1  2  1  0
  2  3  1  0
  3  4  2  0
  4  5  1  0
  5  6  1  0
  5  7  2  0
  7  8  1  0
  8  9  1  0
  9 10  1  0
 10 11  2  0
 11 12  1  0
 12 13  2  0
 13 14  1  0
 14 15  2  0
  7 16  1  0
 16  2  2  0
 15 10  1  0
  1 17  1  0
  1 18  1  0
  1 19  1  0
  3 20  1  0
  4 21  1  0
  8 22  1  0
  8 23  1  0
  9 24  1  0
  9 25  1  0
 11 26  1  0
 12 27  1  0
 13 28  1  0
 14 29  1  0
 15 30  1  0
 16 31  1  0
M  RAD  1   6   3
M  END
$$$$
