
     RDKit          3D

 31 32  0  0  0  0  0  0  0  0999 V2000
   -4.5479   -0.7552   -1.0443 C   0  0  0  0  0  0  0  0  0  0  0  0
   -3.5780   -0.2630   -0.0111 C   0  0  0  0  0  0  0  0  0  0  0  0
   -4.0131    0.0062    1.2940 C   0  0  0  0  0  0  0  0  0  0  0  0
   -3.1164    0.4899    2.2489 C   0  0  0  0  0  0  0  0  0  0  0  0
   -1.7807    0.7275    1.9082 C   0  0  0  0  0  0  0  0  0  0  0  0
   -0.8833    1.2065    2.9077 N   0  0  0  0  0  1  0  0  0  0  0  0
   -1.3372    0.4941    0.5899 C   0  0  0  0  0  0  0  0  0  0  0  0
    0.1024    0.7184    0.1966 C   0  0  0  0  0  0  0  0  0  0  0  0
    0.9408   -0.5305    0.4849 C   0  0  0  0  0  0  0  0  0  0  0  0
    2.3768   -0.3055    0.0947 C   0  0  0  0  0  0  0  0  0  0  0  0
    3.2828    0.2476    1.0153 C   0  0  0  0  0  0  0  0  0  0  0  0
    4.6088    0.4868    0.6410 C   0  0  0  0  0  0  0  0  0  0  0  0
    5.0362    0.1854   -0.6552 C   0  0  0  0  0  0  0  0  0  0  0  0
    4.1371   -0.3519   -1.5806 C   0  0  0  0  0  0  0  0  0  0  0  0
    2.8102   -0.5927   -1.2105 C   0  0  0  0  0  0  0  0  0  0  0  0
   -2.2434   -0.0076   -0.3605 C   0  0  0  0  0  0  0  0  0  0  0  0
   -5.0022    0.1124   -1.5668 H   0  0  0  0  0  0  0  0  0  0  0  0
   -5.3538   -1.3563   -0.5719 H   0  0  0  0  0  0  0  0  0  0  0  0
   -4.0329   -1.3982   -1.7895 H   0  0  0  0  0  0  0  0  0  0  0  0
   -5.0453   -0.1642    1.5742 H   0  0  0  0  0  0  0  0  0  0  0  0
   -3.4617    0.6801    3.2576 H   0  0  0  0  0  0  0  0  0  0  0  0
    0.1640    0.9650   -0.8867 H   0  0  0  0  0  0  0  0  0  0  0  0
    0.5184    1.5897    0.7480 H   0  0  0  0  0  0  0  0  0  0  0  0
    0.8811   -0.7828    1.5667 H   0  0  0  0  0  0  0  0  0  0  0  0
    0.5287   -1.3964   -0.0791 H   0  0  0  0  0  0  0  0  0  0  0  0
    2.9617    0.4943    2.0198 H   0  0  0  0  0  0  0  0  0  0  0  0
    5.3042    0.9091    1.3548 H   0  0  0  0  0  0  0  0  0  0  0  0
    6.0625    0.3723   -0.9437 H   0  0  0  0  0  0  0  0  0  0  0  0
    4.4675   -0.5787   -2.5861 H   0  0  0  0  0  0  0  0  0  0  0  0
    2.1211   -1.0005   -1.9397 H   0  0  0  0  0  0  0  0  0  0  0  0
   -1.9084   -0.2018   -1.3728 H   0  0  0  0  0  0  0  0  0  0  0  0
  1  2  1  0
  2  3  1  0
  3  4  2  0
  4  5  1  0
  5  6  1  0
  5  7  2  0
  7  8  1  0
  8  9  1  0
  9 10  1  0
 10 11  2  0
 11 12  1  0
 12 13  2  0
 13 14  1  0
 14 15  2  0
  7 16  1  0
 16  2  2  0
 15 10  1  0
  1 17  1  0
  1 18  1  0
  1 19  1  0
  3 20  1  0
  4 21  1  0
  8 22  1  0
  8 23  1  0
  9 24  1  0
  9 25  1  0
 11 26  1  0
 12 27  1  0
 13 28  1  0
 14 29  1  0
 15 30  1  0
 16 31  1  0
M  RAD  1   6   3
M  END
$$$$
