
     RDKit          3D

 31 32  0  0  0  0  0  0  0  0999 V2000
    2.3678    2.0935   -1.1693 C   0  0  0  0  0  0  0  0  0  0  0  0
    2.1936    0.6662   -0.7425 C   0  0  0  0  0  0  0  0  0  0  0  0
    2.7953   -0.3684   -1.4720 C   0  0  0  0  0  0  0  0  0  0  0  0
    2.5892   -1.7001   -1.1055 C   0  0  0  0  0  0  0  0  0  0  0  0
    1.7700   -2.0150   -0.0162 C   0  0  0  0  0  0  0  0  0  0  0  0
    1.5622   -3.3840    0.3243 N   0  0  0  0  0  1  0  0  0  0  0  0
    1.1517   -0.9849    0.7217 C   0  0  0  0  0  0  0  0  0  0  0  0
    0.2076   -1.2946    1.8611 C   0  0  0  0  0  0  0  0  0  0  0  0
   -1.2041   -1.6288    1.3578 C   0  0  0  0  0  0  0  0  0  0  0  0
   -1.8405   -0.4549    0.6576 C   0  0  0  0  0  0  0  0  0  0  0  0
   -1.7969   -0.3544   -0.7437 C   0  0  0  0  0  0  0  0  0  0  0  0
   -2.3391    0.7622   -1.3868 C   0  0  0  0  0  0  0  0  0  0  0  0
   -2.9250    1.7861   -0.6376 C   0  0  0  0  0  0  0  0  0  0  0  0
   -2.9668    1.6965    0.7565 C   0  0  0  0  0  0  0  0  0  0  0  0
   -2.4236    0.5825    1.4040 C   0  0  0  0  0  0  0  0  0  0  0  0
    1.3628    0.3526    0.3429 C   0  0  0  0  0  0  0  0  0  0  0  0
    1.5497    2.3721   -1.8660 H   0  0  0  0  0  0  0  0  0  0  0  0
    2.3399    2.7701   -0.2887 H   0  0  0  0  0  0  0  0  0  0  0  0
    3.3437    2.2356   -1.6805 H   0  0  0  0  0  0  0  0  0  0  0  0
    3.4207   -0.1448   -2.3275 H   0  0  0  0  0  0  0  0  0  0  0  0
    3.0602   -2.4901   -1.6770 H   0  0  0  0  0  0  0  0  0  0  0  0
    0.5966   -2.1556    2.4461 H   0  0  0  0  0  0  0  0  0  0  0  0
    0.1575   -0.4365    2.5672 H   0  0  0  0  0  0  0  0  0  0  0  0
   -1.1641   -2.5098    0.6803 H   0  0  0  0  0  0  0  0  0  0  0  0
   -1.8337   -1.9224    2.2257 H   0  0  0  0  0  0  0  0  0  0  0  0
   -1.3323   -1.1335   -1.3355 H   0  0  0  0  0  0  0  0  0  0  0  0
   -2.3006    0.8361   -2.4659 H   0  0  0  0  0  0  0  0  0  0  0  0
   -3.3429    2.6507   -1.1369 H   0  0  0  0  0  0  0  0  0  0  0  0
   -3.4156    2.4929    1.3360 H   0  0  0  0  0  0  0  0  0  0  0  0
   -2.4504    0.5307    2.4854 H   0  0  0  0  0  0  0  0  0  0  0  0
    0.8673    1.1500    0.8847 H   0  0  0  0  0  0  0  0  0  0  0  0
  1  2  1  0
  2  3  1  0
  3  4  2  0
  4  5  1  0
  5  6  1  0
  5  7  2  0
  7  8  1  0
  8  9  1  0
  9 10  1  0
 10 11  2  0
 11 12  1  0
 12 13  2  0
 13 14  1  0
 14 15  2  0
  7 16  1  0
 16  2  2  0
 15 10  1  0
  1 17  1  0
  1 18  1  0
  1 19  1  0
  3 20  1  0
  4 21  1  0
  8 22  1  0
  8 23  1  0
  9 24  1  0
  9 25  1  0
 11 26  1  0
 12 27  1  0
 13 28  1  0
 14 29  1  0
 15 30  1  0
 16 31  1  0
M  RAD  1   6   3
M  END
$$$$
