
     RDKit          3D

 31 32  0  0  0  0  0  0  0  0999 V2000
    4.5843    0.8901    0.9476 C   0  0  0  0  0  0  0  0  0  0  0  0
    3.5836    0.2447    0.0352 C   0  0  0  0  0  0  0  0  0  0  0  0
    3.9821   -0.2439   -1.2167 C   0  0  0  0  0  0  0  0  0  0  0  0
    3.0567   -0.8689   -2.0552 C   0  0  0  0  0  0  0  0  0  0  0  0
    1.7284   -1.0295   -1.6470 C   0  0  0  0  0  0  0  0  0  0  0  0
    0.8012   -1.6573   -2.5301 N   0  0  0  0  0  1  0  0  0  0  0  0
    1.3217   -0.5739   -0.3758 C   0  0  0  0  0  0  0  0  0  0  0  0
   -0.1090   -0.7113    0.0845 C   0  0  0  0  0  0  0  0  0  0  0  0
   -0.9443    0.4825   -0.3878 C   0  0  0  0  0  0  0  0  0  0  0  0
   -2.3713    0.3438    0.0694 C   0  0  0  0  0  0  0  0  0  0  0  0
   -2.7680    0.8502    1.3185 C   0  0  0  0  0  0  0  0  0  0  0  0
   -4.0867    0.6913    1.7560 C   0  0  0  0  0  0  0  0  0  0  0  0
   -5.0142    0.0185    0.9556 C   0  0  0  0  0  0  0  0  0  0  0  0
   -4.6234   -0.5003   -0.2819 C   0  0  0  0  0  0  0  0  0  0  0  0
   -3.3058   -0.3437   -0.7233 C   0  0  0  0  0  0  0  0  0  0  0  0
    2.2565    0.0679    0.4549 C   0  0  0  0  0  0  0  0  0  0  0  0
    5.3825    1.3939    0.3619 H   0  0  0  0  0  0  0  0  0  0  0  0
    5.0450    0.1163    1.5964 H   0  0  0  0  0  0  0  0  0  0  0  0
    4.0944    1.6549    1.5874 H   0  0  0  0  0  0  0  0  0  0  0  0
    5.0080   -0.1357   -1.5466 H   0  0  0  0  0  0  0  0  0  0  0  0
    3.3738   -1.2290   -3.0260 H   0  0  0  0  0  0  0  0  0  0  0  0
   -0.1442   -0.7728    1.1950 H   0  0  0  0  0  0  0  0  0  0  0  0
   -0.5466   -1.6571   -0.3032 H   0  0  0  0  0  0  0  0  0  0  0  0
   -0.5103    1.4251    0.0133 H   0  0  0  0  0  0  0  0  0  0  0  0
   -0.9108    0.5500   -1.4977 H   0  0  0  0  0  0  0  0  0  0  0  0
   -2.0566    1.3653    1.9523 H   0  0  0  0  0  0  0  0  0  0  0  0
   -4.3887    1.0868    2.7172 H   0  0  0  0  0  0  0  0  0  0  0  0
   -6.0341   -0.1048    1.2963 H   0  0  0  0  0  0  0  0  0  0  0  0
   -5.3408   -1.0271   -0.8979 H   0  0  0  0  0  0  0  0  0  0  0  0
   -3.0131   -0.7586   -1.6799 H   0  0  0  0  0  0  0  0  0  0  0  0
    1.9498    0.4325    1.4285 H   0  0  0  0  0  0  0  0  0  0  0  0
  1  2  1  0
  2  3  1  0
  3  4  2  0
  4  5  1  0
  5  6  1  0
  5  7  2  0
  7  8  1  0
  8  9  1  0
  9 10  1  0
 10 11  2  0
 11 12  1  0
 12 13  2  0
 13 14  1  0
 14 15  2  0
  7 16  1  0
 16  2  2  0
 15 10  1  0
  1 17  1  0
  1 18  1  0
  1 19  1  0
  3 20  1  0
  4 21  1  0
  8 22  1  0
  8 23  1  0
  9 24  1  0
  9 25  1  0
 11 26  1  0
 12 27  1  0
 13 28  1  0
 14 29  1  0
 15 30  1  0
 16 31  1  0
M  RAD  1   6   3
M  END
$$$$
