
     RDKit          3D

 31 32  0  0  0  0  0  0  0  0999 V2000
    4.4288    0.2967   -1.7102 C   0  0  0  0  0  0  0  0  0  0  0  0
    3.5203   -0.2401   -0.6439 C   0  0  0  0  0  0  0  0  0  0  0  0
    4.0566   -0.8228    0.5127 C   0  0  0  0  0  0  0  0  0  0  0  0
    3.2116   -1.3469    1.4932 C   0  0  0  0  0  0  0  0  0  0  0  0
    1.8236   -1.3117    1.3228 C   0  0  0  0  0  0  0  0  0  0  0  0
    0.9841   -1.8399    2.3475 N   0  0  0  0  0  1  0  0  0  0  0  0
    1.2714   -0.7598    0.1483 C   0  0  0  0  0  0  0  0  0  0  0  0
   -0.2222   -0.6860   -0.0552 C   0  0  0  0  0  0  0  0  0  0  0  0
   -0.7890    0.5918    0.5706 C   0  0  0  0  0  0  0  0  0  0  0  0
   -2.2787    0.6637    0.3695 C   0  0  0  0  0  0  0  0  0  0  0  0
   -3.1491    0.0807    1.3057 C   0  0  0  0  0  0  0  0  0  0  0  0
   -4.5319    0.1194    1.1009 C   0  0  0  0  0  0  0  0  0  0  0  0
   -5.0538    0.7305   -0.0426 C   0  0  0  0  0  0  0  0  0  0  0  0
   -4.1936    1.3003   -0.9854 C   0  0  0  0  0  0  0  0  0  0  0  0
   -2.8102    1.2637   -0.7845 C   0  0  0  0  0  0  0  0  0  0  0  0
    2.1293   -0.2207   -0.8261 C   0  0  0  0  0  0  0  0  0  0  0  0
    4.6586   -0.5084   -2.4389 H   0  0  0  0  0  0  0  0  0  0  0  0
    5.3783    0.6667   -1.2677 H   0  0  0  0  0  0  0  0  0  0  0  0
    3.9474    1.1431   -2.2448 H   0  0  0  0  0  0  0  0  0  0  0  0
    5.1289   -0.8662    0.6586 H   0  0  0  0  0  0  0  0  0  0  0  0
    3.6379   -1.7813    2.3889 H   0  0  0  0  0  0  0  0  0  0  0  0
   -0.4564   -0.7022   -1.1429 H   0  0  0  0  0  0  0  0  0  0  0  0
   -0.7138   -1.5774    0.3920 H   0  0  0  0  0  0  0  0  0  0  0  0
   -0.5557    0.6141    1.6581 H   0  0  0  0  0  0  0  0  0  0  0  0
   -0.3036    1.4810    0.1107 H   0  0  0  0  0  0  0  0  0  0  0  0
   -2.7567   -0.4041    2.1912 H   0  0  0  0  0  0  0  0  0  0  0  0
   -5.1986   -0.3274    1.8269 H   0  0  0  0  0  0  0  0  0  0  0  0
   -6.1242    0.7585   -0.2003 H   0  0  0  0  0  0  0  0  0  0  0  0
   -4.5987    1.7673   -1.8739 H   0  0  0  0  0  0  0  0  0  0  0  0
   -2.1539    1.7005   -1.5271 H   0  0  0  0  0  0  0  0  0  0  0  0
    1.7133    0.2168   -1.7262 H   0  0  0  0  0  0  0  0  0  0  0  0
  1  2  1  0
  2  3  1  0
  3  4  2  0
  4  5  1  0
  5  6  1  0
  5  7  2  0
  7  8  1  0
  8  9  1  0
  9 10  1  0
 10 11  2  0
 11 12  1  0
 12 13  2  0
 13 14  1  0
 14 15  2  0
  7 16  1  0
 16  2  2  0
 15 10  1  0
  1 17  1  0
  1 18  1  0
  1 19  1  0
  3 20  1  0
  4 21  1  0
  8 22  1  0
  8 23  1  0
  9 24  1  0
  9 25  1  0
 11 26  1  0
 12 27  1  0
 13 28  1  0
 14 29  1  0
 15 30  1  0
 16 31  1  0
M  RAD  1   6   3
M  END
$$$$
