
     RDKit          3D

 31 32  0  0  0  0  0  0  0  0999 V2000
    2.2109    2.3844    0.8577 C   0  0  0  0  0  0  0  0  0  0  0  0
    2.1271    0.9379    0.4697 C   0  0  0  0  0  0  0  0  0  0  0  0
    2.9594   -0.0088    1.0826 C   0  0  0  0  0  0  0  0  0  0  0  0
    2.8938   -1.3519    0.7060 C   0  0  0  0  0  0  0  0  0  0  0  0
    2.0068   -1.7632   -0.2944 C   0  0  0  0  0  0  0  0  0  0  0  0
    1.9484   -3.1437   -0.6470 N   0  0  0  0  0  1  0  0  0  0  0  0
    1.1848   -0.8170   -0.9402 C   0  0  0  0  0  0  0  0  0  0  0  0
    0.1839   -1.2361   -1.9928 C   0  0  0  0  0  0  0  0  0  0  0  0
   -1.1160   -1.7616   -1.3668 C   0  0  0  0  0  0  0  0  0  0  0  0
   -1.8318   -0.6906   -0.5832 C   0  0  0  0  0  0  0  0  0  0  0  0
   -1.6688   -0.6007    0.8099 C   0  0  0  0  0  0  0  0  0  0  0  0
   -2.2902    0.4263    1.5267 C   0  0  0  0  0  0  0  0  0  0  0  0
   -3.0744    1.3710    0.8594 C   0  0  0  0  0  0  0  0  0  0  0  0
   -3.2363    1.2920   -0.5266 C   0  0  0  0  0  0  0  0  0  0  0  0
   -2.6148    0.2678   -1.2477 C   0  0  0  0  0  0  0  0  0  0  0  0
    1.2551    0.5322   -0.5510 C   0  0  0  0  0  0  0  0  0  0  0  0
    2.9345    2.9031    0.1948 H   0  0  0  0  0  0  0  0  0  0  0  0
    2.5444    2.4911    1.9120 H   0  0  0  0  0  0  0  0  0  0  0  0
    1.2170    2.8714    0.7620 H   0  0  0  0  0  0  0  0  0  0  0  0
    3.6550    0.2914    1.8566 H   0  0  0  0  0  0  0  0  0  0  0  0
    3.5330   -2.0757    1.1961 H   0  0  0  0  0  0  0  0  0  0  0  0
   -0.0468   -0.3840   -2.6697 H   0  0  0  0  0  0  0  0  0  0  0  0
    0.6242   -2.0305   -2.6331 H   0  0  0  0  0  0  0  0  0  0  0  0
   -0.8946   -2.6363   -0.7166 H   0  0  0  0  0  0  0  0  0  0  0  0
   -1.7818   -2.1279   -2.1782 H   0  0  0  0  0  0  0  0  0  0  0  0
   -1.0515   -1.3173    1.3376 H   0  0  0  0  0  0  0  0  0  0  0  0
   -2.1596    0.4926    2.5991 H   0  0  0  0  0  0  0  0  0  0  0  0
   -3.5534    2.1664    1.4155 H   0  0  0  0  0  0  0  0  0  0  0  0
   -3.8392    2.0277   -1.0430 H   0  0  0  0  0  0  0  0  0  0  0  0
   -2.7373    0.2247   -2.3229 H   0  0  0  0  0  0  0  0  0  0  0  0
    0.6182    1.2652   -1.0327 H   0  0  0  0  0  0  0  0  0  0  0  0
  1  2  1  0
  2  3  1  0
  3  4  2  0
  4  5  1  0
  5  6  1  0
  5  7  2  0
  7  8  1  0
  8  9  1  0
  9 10  1  0
 10 11  2  0
 11 12  1  0
 12 13  2  0
 13 14  1  0
 14 15  2  0
  7 16  1  0
 16  2  2  0
 15 10  1  0
  1 17  1  0
  1 18  1  0
  1 19  1  0
  3 20  1  0
  4 21  1  0
  8 22  1  0
  8 23  1  0
  9 24  1  0
  9 25  1  0
 11 26  1  0
 12 27  1  0
 13 28  1  0
 14 29  1  0
 15 30  1  0
 16 31  1  0
M  RAD  1   6   3
M  END
$$$$
