
     RDKit          3D

 31 32  0  0  0  0  0  0  0  0999 V2000
   -4.3566   -1.8696   -0.6669 C   0  0  0  0  0  0  0  0  0  0  0  0
   -3.5089   -0.6338   -0.5977 C   0  0  0  0  0  0  0  0  0  0  0  0
   -4.0450    0.6108   -0.9562 C   0  0  0  0  0  0  0  0  0  0  0  0
   -3.2645    1.7653   -0.8663 C   0  0  0  0  0  0  0  0  0  0  0  0
   -1.9472    1.6937   -0.4012 C   0  0  0  0  0  0  0  0  0  0  0  0
   -1.1680    2.8863   -0.3348 N   0  0  0  0  0  1  0  0  0  0  0  0
   -1.4062    0.4533   -0.0042 C   0  0  0  0  0  0  0  0  0  0  0  0
    0.0186    0.3392    0.4800 C   0  0  0  0  0  0  0  0  0  0  0  0
    0.9757    0.1504   -0.7008 C   0  0  0  0  0  0  0  0  0  0  0  0
    2.3966    0.0391   -0.2175 C   0  0  0  0  0  0  0  0  0  0  0  0
    2.9330   -1.2136    0.1247 C   0  0  0  0  0  0  0  0  0  0  0  0
    4.2428   -1.3111    0.6048 C   0  0  0  0  0  0  0  0  0  0  0  0
    5.0212   -0.1602    0.7557 C   0  0  0  0  0  0  0  0  0  0  0  0
    4.4897    1.0910    0.4306 C   0  0  0  0  0  0  0  0  0  0  0  0
    3.1804    1.1930   -0.0498 C   0  0  0  0  0  0  0  0  0  0  0  0
   -2.1943   -0.7057   -0.1128 C   0  0  0  0  0  0  0  0  0  0  0  0
   -5.1145   -1.7815   -1.4743 H   0  0  0  0  0  0  0  0  0  0  0  0
   -4.8762   -2.0153    0.3031 H   0  0  0  0  0  0  0  0  0  0  0  0
   -3.7306   -2.7620   -0.8806 H   0  0  0  0  0  0  0  0  0  0  0  0
   -5.0654    0.6870   -1.3111 H   0  0  0  0  0  0  0  0  0  0  0  0
   -3.6856    2.7187   -1.1601 H   0  0  0  0  0  0  0  0  0  0  0  0
    0.1130   -0.5238    1.1761 H   0  0  0  0  0  0  0  0  0  0  0  0
    0.3012    1.2477    1.0553 H   0  0  0  0  0  0  0  0  0  0  0  0
    0.6971   -0.7668   -1.2654 H   0  0  0  0  0  0  0  0  0  0  0  0
    0.8838    1.0097   -1.4012 H   0  0  0  0  0  0  0  0  0  0  0  0
    2.3370   -2.1120    0.0212 H   0  0  0  0  0  0  0  0  0  0  0  0
    4.6532   -2.2787    0.8632 H   0  0  0  0  0  0  0  0  0  0  0  0
    6.0344   -0.2373    1.1286 H   0  0  0  0  0  0  0  0  0  0  0  0
    5.0912    1.9823    0.5543 H   0  0  0  0  0  0  0  0  0  0  0  0
    2.7770    2.1692   -0.2892 H   0  0  0  0  0  0  0  0  0  0  0  0
   -1.7827   -1.6652    0.1782 H   0  0  0  0  0  0  0  0  0  0  0  0
  1  2  1  0
  2  3  1  0
  3  4  2  0
  4  5  1  0
  5  6  1  0
  5  7  2  0
  7  8  1  0
  8  9  1  0
  9 10  1  0
 10 11  2  0
 11 12  1  0
 12 13  2  0
 13 14  1  0
 14 15  2  0
  7 16  1  0
 16  2  2  0
 15 10  1  0
  1 17  1  0
  1 18  1  0
  1 19  1  0
  3 20  1  0
  4 21  1  0
  8 22  1  0
  8 23  1  0
  9 24  1  0
  9 25  1  0
 11 26  1  0
 12 27  1  0
 13 28  1  0
 14 29  1  0
 15 30  1  0
 16 31  1  0
M  RAD  1   6   3
M  END
$$$$
