
     RDKit          3D

 31 32  0  0  0  0  0  0  0  0999 V2000
    2.5435    1.1794    1.8697 C   0  0  0  0  0  0  0  0  0  0  0  0
    2.2513    0.1178    0.8513 C   0  0  0  0  0  0  0  0  0  0  0  0
    2.7830   -1.1705    1.0004 C   0  0  0  0  0  0  0  0  0  0  0  0
    2.4675   -2.1728    0.0806 C   0  0  0  0  0  0  0  0  0  0  0  0
    1.6077   -1.9051   -0.9897 C   0  0  0  0  0  0  0  0  0  0  0  0
    1.2879   -2.9523   -1.9032 N   0  0  0  0  0  1  0  0  0  0  0  0
    1.0589   -0.6159   -1.1475 C   0  0  0  0  0  0  0  0  0  0  0  0
    0.0740   -0.3130   -2.2538 C   0  0  0  0  0  0  0  0  0  0  0  0
   -1.3506   -0.7525   -1.8858 C   0  0  0  0  0  0  0  0  0  0  0  0
   -1.8814    0.0094   -0.6979 C   0  0  0  0  0  0  0  0  0  0  0  0
   -1.8059   -0.5434    0.5922 C   0  0  0  0  0  0  0  0  0  0  0  0
   -2.2484    0.1879    1.6986 C   0  0  0  0  0  0  0  0  0  0  0  0
   -2.7655    1.4747    1.5263 C   0  0  0  0  0  0  0  0  0  0  0  0
   -2.8382    2.0337    0.2474 C   0  0  0  0  0  0  0  0  0  0  0  0
   -2.3946    1.3067   -0.8616 C   0  0  0  0  0  0  0  0  0  0  0  0
    1.3800    0.3856   -0.2145 C   0  0  0  0  0  0  0  0  0  0  0  0
    3.5362    1.0124    2.3394 H   0  0  0  0  0  0  0  0  0  0  0  0
    2.5532    2.1835    1.3946 H   0  0  0  0  0  0  0  0  0  0  0  0
    1.7617    1.1592    2.6576 H   0  0  0  0  0  0  0  0  0  0  0  0
    3.4386   -1.4008    1.8312 H   0  0  0  0  0  0  0  0  0  0  0  0
    2.8853   -3.1639    0.2067 H   0  0  0  0  0  0  0  0  0  0  0  0
    0.0788    0.7740   -2.4901 H   0  0  0  0  0  0  0  0  0  0  0  0
    0.3845   -0.8344   -3.1846 H   0  0  0  0  0  0  0  0  0  0  0  0
   -2.0160   -0.5785   -2.7591 H   0  0  0  0  0  0  0  0  0  0  0  0
   -1.3677   -1.8461   -1.6848 H   0  0  0  0  0  0  0  0  0  0  0  0
   -1.3934   -1.5335    0.7417 H   0  0  0  0  0  0  0  0  0  0  0  0
   -2.1857   -0.2412    2.6902 H   0  0  0  0  0  0  0  0  0  0  0  0
   -3.1061    2.0401    2.3841 H   0  0  0  0  0  0  0  0  0  0  0  0
   -3.2334    3.0327    0.1160 H   0  0  0  0  0  0  0  0  0  0  0  0
   -2.4441    1.7557   -1.8460 H   0  0  0  0  0  0  0  0  0  0  0  0
    0.9389    1.3711   -0.3095 H   0  0  0  0  0  0  0  0  0  0  0  0
  1  2  1  0
  2  3  1  0
  3  4  2  0
  4  5  1  0
  5  6  1  0
  5  7  2  0
  7  8  1  0
  8  9  1  0
  9 10  1  0
 10 11  2  0
 11 12  1  0
 12 13  2  0
 13 14  1  0
 14 15  2  0
  7 16  1  0
 16  2  2  0
 15 10  1  0
  1 17  1  0
  1 18  1  0
  1 19  1  0
  3 20  1  0
  4 21  1  0
  8 22  1  0
  8 23  1  0
  9 24  1  0
  9 25  1  0
 11 26  1  0
 12 27  1  0
 13 28  1  0
 14 29  1  0
 15 30  1  0
 16 31  1  0
M  RAD  1   6   3
M  END
$$$$
