
     RDKit          3D

 31 32  0  0  0  0  0  0  0  0999 V2000
    4.4185    1.3948   -1.1329 C   0  0  0  0  0  0  0  0  0  0  0  0
    3.5433    0.3747   -0.4667 C   0  0  0  0  0  0  0  0  0  0  0  0
    4.1063   -0.6032    0.3650 C   0  0  0  0  0  0  0  0  0  0  0  0
    3.2953   -1.5694    0.9638 C   0  0  0  0  0  0  0  0  0  0  0  0
    1.9169   -1.5819    0.7257 C   0  0  0  0  0  0  0  0  0  0  0  0
    1.1106   -2.5705    1.3630 N   0  0  0  0  0  1  0  0  0  0  0  0
    1.3419   -0.6253   -0.1365 C   0  0  0  0  0  0  0  0  0  0  0  0
   -0.1446   -0.5978   -0.3956 C   0  0  0  0  0  0  0  0  0  0  0  0
   -0.8630    0.2304    0.6740 C   0  0  0  0  0  0  0  0  0  0  0  0
   -2.3455    0.2555    0.4165 C   0  0  0  0  0  0  0  0  0  0  0  0
   -3.1742   -0.7467    0.9485 C   0  0  0  0  0  0  0  0  0  0  0  0
   -4.5468   -0.7406    0.6812 C   0  0  0  0  0  0  0  0  0  0  0  0
   -5.0990    0.2583   -0.1255 C   0  0  0  0  0  0  0  0  0  0  0  0
   -4.2789    1.2505   -0.6698 C   0  0  0  0  0  0  0  0  0  0  0  0
   -2.9057    1.2482   -0.4050 C   0  0  0  0  0  0  0  0  0  0  0  0
    2.1639    0.3529   -0.7225 C   0  0  0  0  0  0  0  0  0  0  0  0
    5.3099    1.6161   -0.5079 H   0  0  0  0  0  0  0  0  0  0  0  0
    4.7539    1.0069   -2.1173 H   0  0  0  0  0  0  0  0  0  0  0  0
    3.8641    2.3450   -1.2874 H   0  0  0  0  0  0  0  0  0  0  0  0
    5.1726   -0.6142    0.5549 H   0  0  0  0  0  0  0  0  0  0  0  0
    3.7405   -2.3106    1.6159 H   0  0  0  0  0  0  0  0  0  0  0  0
   -0.5500   -1.6331   -0.4089 H   0  0  0  0  0  0  0  0  0  0  0  0
   -0.3450   -0.1617   -1.3994 H   0  0  0  0  0  0  0  0  0  0  0  0
   -0.4632    1.2687    0.6745 H   0  0  0  0  0  0  0  0  0  0  0  0
   -0.6642   -0.2002    1.6802 H   0  0  0  0  0  0  0  0  0  0  0  0
   -2.7570   -1.5315    1.5674 H   0  0  0  0  0  0  0  0  0  0  0  0
   -5.1818   -1.5123    1.0966 H   0  0  0  0  0  0  0  0  0  0  0  0
   -6.1614    0.2608   -0.3325 H   0  0  0  0  0  0  0  0  0  0  0  0
   -4.7066    2.0196   -1.2999 H   0  0  0  0  0  0  0  0  0  0  0  0
   -2.2796    2.0171   -0.8405 H   0  0  0  0  0  0  0  0  0  0  0  0
    1.7288    1.0996   -1.3765 H   0  0  0  0  0  0  0  0  0  0  0  0
  1  2  1  0
  2  3  1  0
  3  4  2  0
  4  5  1  0
  5  6  1  0
  5  7  2  0
  7  8  1  0
  8  9  1  0
  9 10  1  0
 10 11  2  0
 11 12  1  0
 12 13  2  0
 13 14  1  0
 14 15  2  0
  7 16  1  0
 16  2  2  0
 15 10  1  0
  1 17  1  0
  1 18  1  0
  1 19  1  0
  3 20  1  0
  4 21  1  0
  8 22  1  0
  8 23  1  0
  9 24  1  0
  9 25  1  0
 11 26  1  0
 12 27  1  0
 13 28  1  0
 14 29  1  0
 15 30  1  0
 16 31  1  0
M  RAD  1   6   3
M  END
$$$$
