
     RDKit          3D

 31 32  0  0  0  0  0  0  0  0999 V2000
   -2.5008   -2.2475    0.4348 C   0  0  0  0  0  0  0  0  0  0  0  0
   -2.2352   -0.8553   -0.0562 C   0  0  0  0  0  0  0  0  0  0  0  0
   -2.9579   -0.3369   -1.1395 C   0  0  0  0  0  0  0  0  0  0  0  0
   -2.7231    0.9664   -1.5827 C   0  0  0  0  0  0  0  0  0  0  0  0
   -1.7746    1.7709   -0.9425 C   0  0  0  0  0  0  0  0  0  0  0  0
   -1.5429    3.0919   -1.4269 N   0  0  0  0  0  1  0  0  0  0  0  0
   -1.0615    1.2725    0.1671 C   0  0  0  0  0  0  0  0  0  0  0  0
    0.0021    2.1003    0.8520 C   0  0  0  0  0  0  0  0  0  0  0  0
    1.3443    2.0321    0.1093 C   0  0  0  0  0  0  0  0  0  0  0  0
    1.9105    0.6347    0.1053 C   0  0  0  0  0  0  0  0  0  0  0  0
    2.5838    0.1413    1.2352 C   0  0  0  0  0  0  0  0  0  0  0  0
    3.0632   -1.1722    1.2513 C   0  0  0  0  0  0  0  0  0  0  0  0
    2.8675   -2.0032    0.1448 C   0  0  0  0  0  0  0  0  0  0  0  0
    2.1912   -1.5224   -0.9797 C   0  0  0  0  0  0  0  0  0  0  0  0
    1.7121   -0.2092   -1.0010 C   0  0  0  0  0  0  0  0  0  0  0  0
   -1.3018   -0.0424    0.6031 C   0  0  0  0  0  0  0  0  0  0  0  0
   -3.2695   -2.2164    1.2349 H   0  0  0  0  0  0  0  0  0  0  0  0
   -1.5716   -2.7009    0.8413 H   0  0  0  0  0  0  0  0  0  0  0  0
   -2.8641   -2.8946   -0.3919 H   0  0  0  0  0  0  0  0  0  0  0  0
   -3.6989   -0.9434   -1.6455 H   0  0  0  0  0  0  0  0  0  0  0  0
   -3.2789    1.3509   -2.4288 H   0  0  0  0  0  0  0  0  0  0  0  0
   -0.3268    3.1602    0.9085 H   0  0  0  0  0  0  0  0  0  0  0  0
    0.1403    1.7617    1.9026 H   0  0  0  0  0  0  0  0  0  0  0  0
    1.2185    2.4032   -0.9315 H   0  0  0  0  0  0  0  0  0  0  0  0
    2.0645    2.7171    0.6072 H   0  0  0  0  0  0  0  0  0  0  0  0
    2.7305    0.7715    2.1036 H   0  0  0  0  0  0  0  0  0  0  0  0
    3.5820   -1.5475    2.1239 H   0  0  0  0  0  0  0  0  0  0  0  0
    3.2362   -3.0206    0.1603 H   0  0  0  0  0  0  0  0  0  0  0  0
    2.0338   -2.1691   -1.8333 H   0  0  0  0  0  0  0  0  0  0  0  0
    1.1766    0.1458   -1.8729 H   0  0  0  0  0  0  0  0  0  0  0  0
   -0.7496   -0.4389    1.4473 H   0  0  0  0  0  0  0  0  0  0  0  0
  1  2  1  0
  2  3  1  0
  3  4  2  0
  4  5  1  0
  5  6  1  0
  5  7  2  0
  7  8  1  0
  8  9  1  0
  9 10  1  0
 10 11  2  0
 11 12  1  0
 12 13  2  0
 13 14  1  0
 14 15  2  0
  7 16  1  0
 16  2  2  0
 15 10  1  0
  1 17  1  0
  1 18  1  0
  1 19  1  0
  3 20  1  0
  4 21  1  0
  8 22  1  0
  8 23  1  0
  9 24  1  0
  9 25  1  0
 11 26  1  0
 12 27  1  0
 13 28  1  0
 14 29  1  0
 15 30  1  0
 16 31  1  0
M  RAD  1   6   3
M  END
$$$$
