
     RDKit          3D

 31 32  0  0  0  0  0  0  0  0999 V2000
    2.1961    2.5782    0.2897 C   0  0  0  0  0  0  0  0  0  0  0  0
    2.1105    1.1170   -0.0380 C   0  0  0  0  0  0  0  0  0  0  0  0
    2.8997    0.5735   -1.0609 C   0  0  0  0  0  0  0  0  0  0  0  0
    2.8333   -0.7908   -1.3513 C   0  0  0  0  0  0  0  0  0  0  0  0
    1.9890   -1.6298   -0.6166 C   0  0  0  0  0  0  0  0  0  0  0  0
    1.9281   -3.0159   -0.9460 N   0  0  0  0  0  1  0  0  0  0  0  0
    1.2116   -1.1020    0.4346 C   0  0  0  0  0  0  0  0  0  0  0  0
    0.2558   -1.9734    1.2173 C   0  0  0  0  0  0  0  0  0  0  0  0
   -1.0793   -2.1590    0.4821 C   0  0  0  0  0  0  0  0  0  0  0  0
   -1.8164   -0.8532    0.3237 C   0  0  0  0  0  0  0  0  0  0  0  0
   -2.5539   -0.3229    1.3952 C   0  0  0  0  0  0  0  0  0  0  0  0
   -3.1944    0.9133    1.2657 C   0  0  0  0  0  0  0  0  0  0  0  0
   -3.0971    1.6310    0.0704 C   0  0  0  0  0  0  0  0  0  0  0  0
   -2.3583    1.1142   -0.9973 C   0  0  0  0  0  0  0  0  0  0  0  0
   -1.7181   -0.1225   -0.8729 C   0  0  0  0  0  0  0  0  0  0  0  0
    1.2821    0.2736    0.7166 C   0  0  0  0  0  0  0  0  0  0  0  0
    2.4802    3.1676   -0.6081 H   0  0  0  0  0  0  0  0  0  0  0  0
    2.9577    2.7350    1.0817 H   0  0  0  0  0  0  0  0  0  0  0  0
    1.2148    2.9546    0.6498 H   0  0  0  0  0  0  0  0  0  0  0  0
    3.5621    1.2068   -1.6382 H   0  0  0  0  0  0  0  0  0  0  0  0
    3.4385   -1.1962   -2.1526 H   0  0  0  0  0  0  0  0  0  0  0  0
    0.0692   -1.5376    2.2237 H   0  0  0  0  0  0  0  0  0  0  0  0
    0.7148   -2.9703    1.3914 H   0  0  0  0  0  0  0  0  0  0  0  0
   -1.7112   -2.8678    1.0602 H   0  0  0  0  0  0  0  0  0  0  0  0
   -0.9011   -2.6273   -0.5107 H   0  0  0  0  0  0  0  0  0  0  0  0
   -2.6260   -0.8636    2.3308 H   0  0  0  0  0  0  0  0  0  0  0  0
   -3.7619    1.3174    2.0940 H   0  0  0  0  0  0  0  0  0  0  0  0
   -3.5907    2.5893   -0.0269 H   0  0  0  0  0  0  0  0  0  0  0  0
   -2.2776    1.6741   -1.9200 H   0  0  0  0  0  0  0  0  0  0  0  0
   -1.1365   -0.5043   -1.7029 H   0  0  0  0  0  0  0  0  0  0  0  0
    0.6789    0.6911    1.5145 H   0  0  0  0  0  0  0  0  0  0  0  0
  1  2  1  0
  2  3  1  0
  3  4  2  0
  4  5  1  0
  5  6  1  0
  5  7  2  0
  7  8  1  0
  8  9  1  0
  9 10  1  0
 10 11  2  0
 11 12  1  0
 12 13  2  0
 13 14  1  0
 14 15  2  0
  7 16  1  0
 16  2  2  0
 15 10  1  0
  1 17  1  0
  1 18  1  0
  1 19  1  0
  3 20  1  0
  4 21  1  0
  8 22  1  0
  8 23  1  0
  9 24  1  0
  9 25  1  0
 11 26  1  0
 12 27  1  0
 13 28  1  0
 14 29  1  0
 15 30  1  0
 16 31  1  0
M  RAD  1   6   3
M  END
$$$$
