
     RDKit          3D

 31 32  0  0  0  0  0  0  0  0999 V2000
   -4.4962   -1.5666   -0.3523 C   0  0  0  0  0  0  0  0  0  0  0  0
   -3.5557   -0.4784    0.0741 C   0  0  0  0  0  0  0  0  0  0  0  0
   -4.0544    0.7694    0.4730 C   0  0  0  0  0  0  0  0  0  0  0  0
   -3.1811    1.7738    0.8956 C   0  0  0  0  0  0  0  0  0  0  0  0
   -1.8030    1.5389    0.9420 C   0  0  0  0  0  0  0  0  0  0  0  0
   -0.9331    2.5878    1.3625 N   0  0  0  0  0  1  0  0  0  0  0  0
   -1.2903    0.2769    0.5767 C   0  0  0  0  0  0  0  0  0  0  0  0
    0.1931   -0.0007    0.5938 C   0  0  0  0  0  0  0  0  0  0  0  0
    0.8354    0.4196   -0.7316 C   0  0  0  0  0  0  0  0  0  0  0  0
    2.3149    0.1448   -0.7132 C   0  0  0  0  0  0  0  0  0  0  0  0
    2.8097   -1.1025   -1.1298 C   0  0  0  0  0  0  0  0  0  0  0  0
    4.1819   -1.3676   -1.0808 C   0  0  0  0  0  0  0  0  0  0  0  0
    5.0669   -0.3949   -0.6073 C   0  0  0  0  0  0  0  0  0  0  0  0
    4.5807    0.8431   -0.1779 C   0  0  0  0  0  0  0  0  0  0  0  0
    3.2093    1.1123   -0.2252 C   0  0  0  0  0  0  0  0  0  0  0  0
   -2.1756   -0.7229    0.1378 C   0  0  0  0  0  0  0  0  0  0  0  0
   -4.0120   -2.2323   -1.0982 H   0  0  0  0  0  0  0  0  0  0  0  0
   -4.7902   -2.1680    0.5331 H   0  0  0  0  0  0  0  0  0  0  0  0
   -5.4088   -1.1371   -0.8179 H   0  0  0  0  0  0  0  0  0  0  0  0
   -5.1191    0.9671    0.4512 H   0  0  0  0  0  0  0  0  0  0  0  0
   -3.5778    2.7382    1.1873 H   0  0  0  0  0  0  0  0  0  0  0  0
    0.3724   -1.0852    0.7658 H   0  0  0  0  0  0  0  0  0  0  0  0
    0.6742    0.5417    1.4368 H   0  0  0  0  0  0  0  0  0  0  0  0
    0.6572    1.5031   -0.9097 H   0  0  0  0  0  0  0  0  0  0  0  0
    0.3598   -0.1353   -1.5706 H   0  0  0  0  0  0  0  0  0  0  0  0
    2.1334   -1.8680   -1.4899 H   0  0  0  0  0  0  0  0  0  0  0  0
    4.5588   -2.3284   -1.4067 H   0  0  0  0  0  0  0  0  0  0  0  0
    6.1285   -0.6022   -0.5688 H   0  0  0  0  0  0  0  0  0  0  0  0
    5.2663    1.5931    0.1949 H   0  0  0  0  0  0  0  0  0  0  0  0
    2.8441    2.0720    0.1193 H   0  0  0  0  0  0  0  0  0  0  0  0
   -1.7893   -1.6918   -0.1569 H   0  0  0  0  0  0  0  0  0  0  0  0
  1  2  1  0
  2  3  1  0
  3  4  2  0
  4  5  1  0
  5  6  1  0
  5  7  2  0
  7  8  1  0
  8  9  1  0
  9 10  1  0
 10 11  2  0
 11 12  1  0
 12 13  2  0
 13 14  1  0
 14 15  2  0
  7 16  1  0
 16  2  2  0
 15 10  1  0
  1 17  1  0
  1 18  1  0
  1 19  1  0
  3 20  1  0
  4 21  1  0
  8 22  1  0
  8 23  1  0
  9 24  1  0
  9 25  1  0
 11 26  1  0
 12 27  1  0
 13 28  1  0
 14 29  1  0
 15 30  1  0
 16 31  1  0
M  RAD  1   6   3
M  END
$$$$
